#======================================================================
# Crystal Data Generated By AuToFF
#----------------------------------------------------------------------

data_AuToFF_phase_1

_cell_length_a                         26.0220
_cell_length_b                         26.0220
_cell_length_c                         27.8380
_cell_angle_alpha                      90.00
_cell_angle_beta                       90.00
_cell_angle_gamma                      90.00
_symmetry_space_group_name_H-M_alt     'P 1'
_symmetry_space_group_IT_number        1

loop_
_space_group_symop_operation_xyz
   'x, y, z'

loop_
   _atom_site_label
   _atom_site_type_symbol
   _atom_site_fract_x
   _atom_site_fract_y
   _atom_site_fract_z
   _atom_site_charge
       O1          O   0.03630005   0.20246676   0.15890006  -0.75000000
       O2          O   0.06616671   0.13850012   0.00000000  -0.75000000
       O3          O   0.13126662   0.10366651   0.06605000  -0.75000000
       O4          O   0.13086657   0.03630005   0.15890006  -0.75000000
       O5          O   0.19483322   0.06616671   0.00000000  -0.75000000
       O6          O   0.22966682   0.13126662   0.06605000  -0.75000000
       O7          O   0.29703328   0.13086657   0.15890006  -0.75000000
       O8          O   0.26716663   0.19483322   0.00000000  -0.75000000
       O9          O   0.20206671   0.22966682   0.06605000  -0.75000000
       O10         O   0.20246676   0.29703328   0.15890006  -0.75000000
       O11         O   0.13850012   0.26716663   0.00000000  -0.75000000
       O12         O   0.10366651   0.20206671   0.06605000  -0.75000000
       O13         O   0.29703328   0.20246676   0.40890006  -0.75000000
       O14         O   0.26716663   0.13850012   0.25000000  -0.75000000
       O15         O   0.20206671   0.10366651   0.31605000  -0.75000000
       O16         O   0.20246676   0.03630005   0.40890006  -0.75000000
       O17         O   0.13850012   0.06616671   0.25000000  -0.75000000
       O18         O   0.10366651   0.13126662   0.31605000  -0.75000000
       O19         O   0.03630005   0.13086657   0.40890006  -0.75000000
       O20         O   0.06616671   0.19483322   0.25000000  -0.75000000
       O21         O   0.13126662   0.22966682   0.31605000  -0.75000000
       O22         O   0.13086657   0.29703328   0.40890006  -0.75000000
       O23         O   0.19483322   0.26716663   0.25000000  -0.75000000
       O24         O   0.22966682   0.20206671   0.31605000  -0.75000000
       O25         O   0.29703328   0.13086657   0.34109994  -0.75000000
       O26         O   0.20206671   0.22966682   0.43395000  -0.75000000
       O27         O   0.20246676   0.29703328   0.34109994  -0.75000000
       O28         O   0.10366651   0.20206671   0.43395000  -0.75000000
       O29         O   0.03630005   0.20246676   0.34109994  -0.75000000
       O30         O   0.13126662   0.10366651   0.43395000  -0.75000000
       O31         O   0.13086657   0.03630005   0.34109994  -0.75000000
       O32         O   0.22966682   0.13126662   0.43395000  -0.75000000
       O33         O   0.03630005   0.13086657   0.09109994  -0.75000000
       O34         O   0.13126662   0.22966682   0.18395000  -0.75000000
       O35         O   0.13086657   0.29703328   0.09109994  -0.75000000
       O36         O   0.22966682   0.20206671   0.18395000  -0.75000000
       O37         O   0.29703328   0.20246676   0.09109994  -0.75000000
       O38         O   0.20206671   0.10366651   0.18395000  -0.75000000
       O39         O   0.20246676   0.03630005   0.09109994  -0.75000000
       O40         O   0.10366651   0.13126662   0.18395000  -0.75000000
      Si41        Si   0.08446661   0.14360003   0.05570012   1.50000000
      Si42        Si   0.00000000   0.16666667   0.12500000   1.50000000
      Si43        Si   0.18973330   0.08446661   0.05570012   1.50000000
      Si44        Si   0.16666667   0.00000000   0.12500000   1.50000000
      Si45        Si   0.24886673   0.18973330   0.05570012   1.50000000
      Si46        Si   0.14360003   0.24886673   0.05570012   1.50000000
      Si47        Si   0.24886673   0.14360003   0.30570012   1.50000000
      Si48        Si   0.00000000   0.16666667   0.37500000   1.50000000
      Si49        Si   0.14360003   0.08446661   0.30570012   1.50000000
      Si50        Si   0.16666667   0.00000000   0.37500000   1.50000000
      Si51        Si   0.08446661   0.18973330   0.30570012   1.50000000
      Si52        Si   0.18973330   0.24886673   0.30570012   1.50000000
      Si53        Si   0.24886673   0.18973330   0.44429988   1.50000000
      Si54        Si   0.14360003   0.24886673   0.44429988   1.50000000
      Si55        Si   0.08446661   0.14360003   0.44429988   1.50000000
      Si56        Si   0.18973330   0.08446661   0.44429988   1.50000000
      Si57        Si   0.08446661   0.18973330   0.19429988   1.50000000
      Si58        Si   0.18973330   0.24886673   0.19429988   1.50000000
      Si59        Si   0.24886673   0.14360003   0.19429988   1.50000000
      Si60        Si   0.14360003   0.08446661   0.19429988   1.50000000
       O61         O   0.03630005   0.20246676   0.65890006  -0.75000000
       O62         O   0.06616671   0.13850012   0.50000000  -0.75000000
       O63         O   0.13126662   0.10366651   0.56605000  -0.75000000
       O64         O   0.13086657   0.03630005   0.65890006  -0.75000000
       O65         O   0.19483322   0.06616671   0.50000000  -0.75000000
       O66         O   0.22966682   0.13126662   0.56605000  -0.75000000
       O67         O   0.29703328   0.13086657   0.65890006  -0.75000000
       O68         O   0.26716663   0.19483322   0.50000000  -0.75000000
       O69         O   0.20206671   0.22966682   0.56605000  -0.75000000
       O70         O   0.20246676   0.29703328   0.65890006  -0.75000000
       O71         O   0.13850012   0.26716663   0.50000000  -0.75000000
       O72         O   0.10366651   0.20206671   0.56605000  -0.75000000
       O73         O   0.29703328   0.20246676   0.90890006  -0.75000000
       O74         O   0.26716663   0.13850012   0.75000000  -0.75000000
       O75         O   0.20206671   0.10366651   0.81605000  -0.75000000
       O76         O   0.20246676   0.03630005   0.90890006  -0.75000000
       O77         O   0.13850012   0.06616671   0.75000000  -0.75000000
       O78         O   0.10366651   0.13126662   0.81605000  -0.75000000
       O79         O   0.03630005   0.13086657   0.90890006  -0.75000000
       O80         O   0.06616671   0.19483322   0.75000000  -0.75000000
       O81         O   0.13126662   0.22966682   0.81605000  -0.75000000
       O82         O   0.13086657   0.29703328   0.90890006  -0.75000000
       O83         O   0.19483322   0.26716663   0.75000000  -0.75000000
       O84         O   0.22966682   0.20206671   0.81605000  -0.75000000
       O85         O   0.29703328   0.13086657   0.84109994  -0.75000000
       O86         O   0.20206671   0.22966682   0.93395000  -0.75000000
       O87         O   0.20246676   0.29703328   0.84109994  -0.75000000
       O88         O   0.10366651   0.20206671   0.93395000  -0.75000000
       O89         O   0.03630005   0.20246676   0.84109994  -0.75000000
       O90         O   0.13126662   0.10366651   0.93395000  -0.75000000
       O91         O   0.13086657   0.03630005   0.84109994  -0.75000000
       O92         O   0.22966682   0.13126662   0.93395000  -0.75000000
       O93         O   0.03630005   0.13086657   0.59109994  -0.75000000
       O94         O   0.13126662   0.22966682   0.68395000  -0.75000000
       O95         O   0.13086657   0.29703328   0.59109994  -0.75000000
       O96         O   0.22966682   0.20206671   0.68395000  -0.75000000
       O97         O   0.29703328   0.20246676   0.59109994  -0.75000000
       O98         O   0.20206671   0.10366651   0.68395000  -0.75000000
       O99         O   0.20246676   0.03630005   0.59109994  -0.75000000
       O100        O   0.10366651   0.13126662   0.68395000  -0.75000000
      Si101       Si   0.08446661   0.14360003   0.55570012   1.50000000
      Si102       Si   0.00000000   0.16666667   0.62500000   1.50000000
      Si103       Si   0.18973330   0.08446661   0.55570012   1.50000000
      Si104       Si   0.16666667   0.00000000   0.62500000   1.50000000
      Si105       Si   0.24886673   0.18973330   0.55570012   1.50000000
      Si106       Si   0.14360003   0.24886673   0.55570012   1.50000000
      Si107       Si   0.24886673   0.14360003   0.80570012   1.50000000
      Si108       Si   0.00000000   0.16666667   0.87500000   1.50000000
      Si109       Si   0.14360003   0.08446661   0.80570012   1.50000000
      Si110       Si   0.16666667   0.00000000   0.87500000   1.50000000
      Si111       Si   0.08446661   0.18973330   0.80570012   1.50000000
      Si112       Si   0.18973330   0.24886673   0.80570012   1.50000000
      Si113       Si   0.24886673   0.18973330   0.94429988   1.50000000
      Si114       Si   0.14360003   0.24886673   0.94429988   1.50000000
      Si115       Si   0.08446661   0.14360003   0.94429988   1.50000000
      Si116       Si   0.18973330   0.08446661   0.94429988   1.50000000
      Si117       Si   0.08446661   0.18973330   0.69429988   1.50000000
      Si118       Si   0.18973330   0.24886673   0.69429988   1.50000000
      Si119       Si   0.24886673   0.14360003   0.69429988   1.50000000
      Si120       Si   0.14360003   0.08446661   0.69429988   1.50000000
       O121        O   0.03630005   0.53580009   0.15890006  -0.75000000
       O122        O   0.06616671   0.47183345   0.00000000  -0.75000000
       O123        O   0.13126662   0.43699985   0.06605000  -0.75000000
       O124        O   0.13086657   0.36963339   0.15890006  -0.75000000
       O125        O   0.19483322   0.39950004   0.00000000  -0.75000000
       O126        O   0.22966682   0.46459995   0.06605000  -0.75000000
       O127        O   0.29703328   0.46419991   0.15890006  -0.75000000
       O128        O   0.26716663   0.52816655   0.00000000  -0.75000000
       O129        O   0.20206671   0.56300015   0.06605000  -0.75000000
       O130        O   0.20246676   0.63036661   0.15890006  -0.75000000
       O131        O   0.13850012   0.60049996   0.00000000  -0.75000000
       O132        O   0.10366651   0.53540005   0.06605000  -0.75000000
       O133        O   0.29703328   0.53580009   0.40890006  -0.75000000
       O134        O   0.26716663   0.47183345   0.25000000  -0.75000000
       O135        O   0.20206671   0.43699985   0.31605000  -0.75000000
       O136        O   0.20246676   0.36963339   0.40890006  -0.75000000
       O137        O   0.13850012   0.39950004   0.25000000  -0.75000000
       O138        O   0.10366651   0.46459995   0.31605000  -0.75000000
       O139        O   0.03630005   0.46419991   0.40890006  -0.75000000
       O140        O   0.06616671   0.52816655   0.25000000  -0.75000000
       O141        O   0.13126662   0.56300015   0.31605000  -0.75000000
       O142        O   0.13086657   0.63036661   0.40890006  -0.75000000
       O143        O   0.19483322   0.60049996   0.25000000  -0.75000000
       O144        O   0.22966682   0.53540005   0.31605000  -0.75000000
       O145        O   0.29703328   0.46419991   0.34109994  -0.75000000
       O146        O   0.20206671   0.56300015   0.43395000  -0.75000000
       O147        O   0.20246676   0.63036661   0.34109994  -0.75000000
       O148        O   0.10366651   0.53540005   0.43395000  -0.75000000
       O149        O   0.03630005   0.53580009   0.34109994  -0.75000000
       O150        O   0.13126662   0.43699985   0.43395000  -0.75000000
       O151        O   0.13086657   0.36963339   0.34109994  -0.75000000
       O152        O   0.22966682   0.46459995   0.43395000  -0.75000000
       O153        O   0.03630005   0.46419991   0.09109994  -0.75000000
       O154        O   0.13126662   0.56300015   0.18395000  -0.75000000
       O155        O   0.13086657   0.63036661   0.09109994  -0.75000000
       O156        O   0.22966682   0.53540005   0.18395000  -0.75000000
       O157        O   0.29703328   0.53580009   0.09109994  -0.75000000
       O158        O   0.20206671   0.43699985   0.18395000  -0.75000000
       O159        O   0.20246676   0.36963339   0.09109994  -0.75000000
       O160        O   0.10366651   0.46459995   0.18395000  -0.75000000
      Si161       Si   0.08446661   0.47693336   0.05570012   1.50000000
      Si162       Si   0.00000000   0.50000000   0.12500000   1.50000000
      Si163       Si   0.18973330   0.41779994   0.05570012   1.50000000
      Si164       Si   0.16666667   0.33333333   0.12500000   1.50000000
      Si165       Si   0.24886673   0.52306664   0.05570012   1.50000000
      Si166       Si   0.14360003   0.58220006   0.05570012   1.50000000
      Si167       Si   0.24886673   0.47693336   0.30570012   1.50000000
      Si168       Si   0.00000000   0.50000000   0.37500000   1.50000000
      Si169       Si   0.14360003   0.41779994   0.30570012   1.50000000
      Si170       Si   0.16666667   0.33333333   0.37500000   1.50000000
      Si171       Si   0.08446661   0.52306664   0.30570012   1.50000000
      Si172       Si   0.18973330   0.58220006   0.30570012   1.50000000
      Si173       Si   0.24886673   0.52306664   0.44429988   1.50000000
      Si174       Si   0.14360003   0.58220006   0.44429988   1.50000000
      Si175       Si   0.08446661   0.47693336   0.44429988   1.50000000
      Si176       Si   0.18973330   0.41779994   0.44429988   1.50000000
      Si177       Si   0.08446661   0.52306664   0.19429988   1.50000000
      Si178       Si   0.18973330   0.58220006   0.19429988   1.50000000
      Si179       Si   0.24886673   0.47693336   0.19429988   1.50000000
      Si180       Si   0.14360003   0.41779994   0.19429988   1.50000000
       O181        O   0.03630005   0.53580009   0.65890006  -0.75000000
       O182        O   0.06616671   0.47183345   0.50000000  -0.75000000
       O183        O   0.13126662   0.43699985   0.56605000  -0.75000000
       O184        O   0.13086657   0.36963339   0.65890006  -0.75000000
       O185        O   0.19483322   0.39950004   0.50000000  -0.75000000
       O186        O   0.22966682   0.46459995   0.56605000  -0.75000000
       O187        O   0.29703328   0.46419991   0.65890006  -0.75000000
       O188        O   0.26716663   0.52816655   0.50000000  -0.75000000
       O189        O   0.20206671   0.56300015   0.56605000  -0.75000000
       O190        O   0.20246676   0.63036661   0.65890006  -0.75000000
       O191        O   0.13850012   0.60049996   0.50000000  -0.75000000
       O192        O   0.10366651   0.53540005   0.56605000  -0.75000000
       O193        O   0.29703328   0.53580009   0.90890006  -0.75000000
       O194        O   0.26716663   0.47183345   0.75000000  -0.75000000
       O195        O   0.20206671   0.43699985   0.81605000  -0.75000000
       O196        O   0.20246676   0.36963339   0.90890006  -0.75000000
       O197        O   0.13850012   0.39950004   0.75000000  -0.75000000
       O198        O   0.10366651   0.46459995   0.81605000  -0.75000000
       O199        O   0.03630005   0.46419991   0.90890006  -0.75000000
       O200        O   0.06616671   0.52816655   0.75000000  -0.75000000
       O201        O   0.13126662   0.56300015   0.81605000  -0.75000000
       O202        O   0.13086657   0.63036661   0.90890006  -0.75000000
       O203        O   0.19483322   0.60049996   0.75000000  -0.75000000
       O204        O   0.22966682   0.53540005   0.81605000  -0.75000000
       O205        O   0.29703328   0.46419991   0.84109994  -0.75000000
       O206        O   0.20206671   0.56300015   0.93395000  -0.75000000
       O207        O   0.20246676   0.63036661   0.84109994  -0.75000000
       O208        O   0.10366651   0.53540005   0.93395000  -0.75000000
       O209        O   0.03630005   0.53580009   0.84109994  -0.75000000
       O210        O   0.13126662   0.43699985   0.93395000  -0.75000000
       O211        O   0.13086657   0.36963339   0.84109994  -0.75000000
       O212        O   0.22966682   0.46459995   0.93395000  -0.75000000
       O213        O   0.03630005   0.46419991   0.59109994  -0.75000000
       O214        O   0.13126662   0.56300015   0.68395000  -0.75000000
       O215        O   0.13086657   0.63036661   0.59109994  -0.75000000
       O216        O   0.22966682   0.53540005   0.68395000  -0.75000000
       O217        O   0.29703328   0.53580009   0.59109994  -0.75000000
       O218        O   0.20206671   0.43699985   0.68395000  -0.75000000
       O219        O   0.20246676   0.36963339   0.59109994  -0.75000000
       O220        O   0.10366651   0.46459995   0.68395000  -0.75000000
      Si221       Si   0.08446661   0.47693336   0.55570012   1.50000000
      Si222       Si   0.00000000   0.50000000   0.62500000   1.50000000
      Si223       Si   0.18973330   0.41779994   0.55570012   1.50000000
      Si224       Si   0.16666667   0.33333333   0.62500000   1.50000000
      Si225       Si   0.24886673   0.52306664   0.55570012   1.50000000
      Si226       Si   0.14360003   0.58220006   0.55570012   1.50000000
      Si227       Si   0.24886673   0.47693336   0.80570012   1.50000000
      Si228       Si   0.00000000   0.50000000   0.87500000   1.50000000
      Si229       Si   0.14360003   0.41779994   0.80570012   1.50000000
      Si230       Si   0.16666667   0.33333333   0.87500000   1.50000000
      Si231       Si   0.08446661   0.52306664   0.80570012   1.50000000
      Si232       Si   0.18973330   0.58220006   0.80570012   1.50000000
      Si233       Si   0.24886673   0.52306664   0.94429988   1.50000000
      Si234       Si   0.14360003   0.58220006   0.94429988   1.50000000
      Si235       Si   0.08446661   0.47693336   0.94429988   1.50000000
      Si236       Si   0.18973330   0.41779994   0.94429988   1.50000000
      Si237       Si   0.08446661   0.52306664   0.69429988   1.50000000
      Si238       Si   0.18973330   0.58220006   0.69429988   1.50000000
      Si239       Si   0.24886673   0.47693336   0.69429988   1.50000000
      Si240       Si   0.14360003   0.41779994   0.69429988   1.50000000
       O241        O   0.03630005   0.86913343   0.15890006  -0.75000000
       O242        O   0.06616671   0.80516678   0.00000000  -0.75000000
       O243        O   0.13126662   0.77033318   0.06605000  -0.75000000
       O244        O   0.13086657   0.70296672   0.15890006  -0.75000000
       O245        O   0.19483322   0.73283337   0.00000000  -0.75000000
       O246        O   0.22966682   0.79793329   0.06605000  -0.75000000
       O247        O   0.29703328   0.79753324   0.15890006  -0.75000000
       O248        O   0.26716663   0.86149988   0.00000000  -0.75000000
       O249        O   0.20206671   0.89633349   0.06605000  -0.75000000
       O250        O   0.20246676   0.96369995   0.15890006  -0.75000000
       O251        O   0.13850012   0.93383329   0.00000000  -0.75000000
       O252        O   0.10366651   0.86873338   0.06605000  -0.75000000
       O253        O   0.29703328   0.86913343   0.40890006  -0.75000000
       O254        O   0.26716663   0.80516678   0.25000000  -0.75000000
       O255        O   0.20206671   0.77033318   0.31605000  -0.75000000
       O256        O   0.20246676   0.70296672   0.40890006  -0.75000000
       O257        O   0.13850012   0.73283337   0.25000000  -0.75000000
       O258        O   0.10366651   0.79793329   0.31605000  -0.75000000
       O259        O   0.03630005   0.79753324   0.40890006  -0.75000000
       O260        O   0.06616671   0.86149988   0.25000000  -0.75000000
       O261        O   0.13126662   0.89633349   0.31605000  -0.75000000
       O262        O   0.13086657   0.96369995   0.40890006  -0.75000000
       O263        O   0.19483322   0.93383329   0.25000000  -0.75000000
       O264        O   0.22966682   0.86873338   0.31605000  -0.75000000
       O265        O   0.29703328   0.79753324   0.34109994  -0.75000000
       O266        O   0.20206671   0.89633349   0.43395000  -0.75000000
       O267        O   0.20246676   0.96369995   0.34109994  -0.75000000
       O268        O   0.10366651   0.86873338   0.43395000  -0.75000000
       O269        O   0.03630005   0.86913343   0.34109994  -0.75000000
       O270        O   0.13126662   0.77033318   0.43395000  -0.75000000
       O271        O   0.13086657   0.70296672   0.34109994  -0.75000000
       O272        O   0.22966682   0.79793329   0.43395000  -0.75000000
       O273        O   0.03630005   0.79753324   0.09109994  -0.75000000
       O274        O   0.13126662   0.89633349   0.18395000  -0.75000000
       O275        O   0.13086657   0.96369995   0.09109994  -0.75000000
       O276        O   0.22966682   0.86873338   0.18395000  -0.75000000
       O277        O   0.29703328   0.86913343   0.09109994  -0.75000000
       O278        O   0.20206671   0.77033318   0.18395000  -0.75000000
       O279        O   0.20246676   0.70296672   0.09109994  -0.75000000
       O280        O   0.10366651   0.79793329   0.18395000  -0.75000000
      Si281       Si   0.08446661   0.81026670   0.05570012   1.50000000
      Si282       Si   0.00000000   0.83333333   0.12500000   1.50000000
      Si283       Si   0.18973330   0.75113327   0.05570012   1.50000000
      Si284       Si   0.16666667   0.66666667   0.12500000   1.50000000
      Si285       Si   0.24886673   0.85639997   0.05570012   1.50000000
      Si286       Si   0.14360003   0.91553339   0.05570012   1.50000000
      Si287       Si   0.24886673   0.81026670   0.30570012   1.50000000
      Si288       Si   0.00000000   0.83333333   0.37500000   1.50000000
      Si289       Si   0.14360003   0.75113327   0.30570012   1.50000000
      Si290       Si   0.16666667   0.66666667   0.37500000   1.50000000
      Si291       Si   0.08446661   0.85639997   0.30570012   1.50000000
      Si292       Si   0.18973330   0.91553339   0.30570012   1.50000000
      Si293       Si   0.24886673   0.85639997   0.44429988   1.50000000
      Si294       Si   0.14360003   0.91553339   0.44429988   1.50000000
      Si295       Si   0.08446661   0.81026670   0.44429988   1.50000000
      Si296       Si   0.18973330   0.75113327   0.44429988   1.50000000
      Si297       Si   0.08446661   0.85639997   0.19429988   1.50000000
      Si298       Si   0.18973330   0.91553339   0.19429988   1.50000000
      Si299       Si   0.24886673   0.81026670   0.19429988   1.50000000
      Si300       Si   0.14360003   0.75113327   0.19429988   1.50000000
       O301        O   0.03630005   0.86913343   0.65890006  -0.75000000
       O302        O   0.06616671   0.80516678   0.50000000  -0.75000000
       O303        O   0.13126662   0.77033318   0.56605000  -0.75000000
       O304        O   0.13086657   0.70296672   0.65890006  -0.75000000
       O305        O   0.19483322   0.73283337   0.50000000  -0.75000000
       O306        O   0.22966682   0.79793329   0.56605000  -0.75000000
       O307        O   0.29703328   0.79753324   0.65890006  -0.75000000
       O308        O   0.26716663   0.86149988   0.50000000  -0.75000000
       O309        O   0.20206671   0.89633349   0.56605000  -0.75000000
       O310        O   0.20246676   0.96369995   0.65890006  -0.75000000
       O311        O   0.13850012   0.93383329   0.50000000  -0.75000000
       O312        O   0.10366651   0.86873338   0.56605000  -0.75000000
       O313        O   0.29703328   0.86913343   0.90890006  -0.75000000
       O314        O   0.26716663   0.80516678   0.75000000  -0.75000000
       O315        O   0.20206671   0.77033318   0.81605000  -0.75000000
       O316        O   0.20246676   0.70296672   0.90890006  -0.75000000
       O317        O   0.13850012   0.73283337   0.75000000  -0.75000000
       O318        O   0.10366651   0.79793329   0.81605000  -0.75000000
       O319        O   0.03630005   0.79753324   0.90890006  -0.75000000
       O320        O   0.06616671   0.86149988   0.75000000  -0.75000000
       O321        O   0.13126662   0.89633349   0.81605000  -0.75000000
       O322        O   0.13086657   0.96369995   0.90890006  -0.75000000
       O323        O   0.19483322   0.93383329   0.75000000  -0.75000000
       O324        O   0.22966682   0.86873338   0.81605000  -0.75000000
       O325        O   0.29703328   0.79753324   0.84109994  -0.75000000
       O326        O   0.20206671   0.89633349   0.93395000  -0.75000000
       O327        O   0.20246676   0.96369995   0.84109994  -0.75000000
       O328        O   0.10366651   0.86873338   0.93395000  -0.75000000
       O329        O   0.03630005   0.86913343   0.84109994  -0.75000000
       O330        O   0.13126662   0.77033318   0.93395000  -0.75000000
       O331        O   0.13086657   0.70296672   0.84109994  -0.75000000
       O332        O   0.22966682   0.79793329   0.93395000  -0.75000000
       O333        O   0.03630005   0.79753324   0.59109994  -0.75000000
       O334        O   0.13126662   0.89633349   0.68395000  -0.75000000
       O335        O   0.13086657   0.96369995   0.59109994  -0.75000000
       O336        O   0.22966682   0.86873338   0.68395000  -0.75000000
       O337        O   0.29703328   0.86913343   0.59109994  -0.75000000
       O338        O   0.20206671   0.77033318   0.68395000  -0.75000000
       O339        O   0.20246676   0.70296672   0.59109994  -0.75000000
       O340        O   0.10366651   0.79793329   0.68395000  -0.75000000
      Si341       Si   0.08446661   0.81026670   0.55570012   1.50000000
      Si342       Si   0.00000000   0.83333333   0.62500000   1.50000000
      Si343       Si   0.18973330   0.75113327   0.55570012   1.50000000
      Si344       Si   0.16666667   0.66666667   0.62500000   1.50000000
      Si345       Si   0.24886673   0.85639997   0.55570012   1.50000000
      Si346       Si   0.14360003   0.91553339   0.55570012   1.50000000
      Si347       Si   0.24886673   0.81026670   0.80570012   1.50000000
      Si348       Si   0.00000000   0.83333333   0.87500000   1.50000000
      Si349       Si   0.14360003   0.75113327   0.80570012   1.50000000
      Si350       Si   0.16666667   0.66666667   0.87500000   1.50000000
      Si351       Si   0.08446661   0.85639997   0.80570012   1.50000000
      Si352       Si   0.18973330   0.91553339   0.80570012   1.50000000
      Si353       Si   0.24886673   0.85639997   0.94429988   1.50000000
      Si354       Si   0.14360003   0.91553339   0.94429988   1.50000000
      Si355       Si   0.08446661   0.81026670   0.94429988   1.50000000
      Si356       Si   0.18973330   0.75113327   0.94429988   1.50000000
      Si357       Si   0.08446661   0.85639997   0.69429988   1.50000000
      Si358       Si   0.18973330   0.91553339   0.69429988   1.50000000
      Si359       Si   0.24886673   0.81026670   0.69429988   1.50000000
      Si360       Si   0.14360003   0.75113327   0.69429988   1.50000000
       O361        O   0.36963339   0.20246676   0.15890006  -0.75000000
       O362        O   0.39950004   0.13850012   0.00000000  -0.75000000
       O363        O   0.46459995   0.10366651   0.06605000  -0.75000000
       O364        O   0.46419991   0.03630005   0.15890006  -0.75000000
       O365        O   0.52816655   0.06616671   0.00000000  -0.75000000
       O366        O   0.56300015   0.13126662   0.06605000  -0.75000000
       O367        O   0.63036661   0.13086657   0.15890006  -0.75000000
       O368        O   0.60049996   0.19483322   0.00000000  -0.75000000
       O369        O   0.53540005   0.22966682   0.06605000  -0.75000000
       O370        O   0.53580009   0.29703328   0.15890006  -0.75000000
       O371        O   0.47183345   0.26716663   0.00000000  -0.75000000
       O372        O   0.43699985   0.20206671   0.06605000  -0.75000000
       O373        O   0.63036661   0.20246676   0.40890006  -0.75000000
       O374        O   0.60049996   0.13850012   0.25000000  -0.75000000
       O375        O   0.53540005   0.10366651   0.31605000  -0.75000000
       O376        O   0.53580009   0.03630005   0.40890006  -0.75000000
       O377        O   0.47183345   0.06616671   0.25000000  -0.75000000
       O378        O   0.43699985   0.13126662   0.31605000  -0.75000000
       O379        O   0.36963339   0.13086657   0.40890006  -0.75000000
       O380        O   0.39950004   0.19483322   0.25000000  -0.75000000
       O381        O   0.46459995   0.22966682   0.31605000  -0.75000000
       O382        O   0.46419991   0.29703328   0.40890006  -0.75000000
       O383        O   0.52816655   0.26716663   0.25000000  -0.75000000
       O384        O   0.56300015   0.20206671   0.31605000  -0.75000000
       O385        O   0.63036661   0.13086657   0.34109994  -0.75000000
       O386        O   0.53540005   0.22966682   0.43395000  -0.75000000
       O387        O   0.53580009   0.29703328   0.34109994  -0.75000000
       O388        O   0.43699985   0.20206671   0.43395000  -0.75000000
       O389        O   0.36963339   0.20246676   0.34109994  -0.75000000
       O390        O   0.46459995   0.10366651   0.43395000  -0.75000000
       O391        O   0.46419991   0.03630005   0.34109994  -0.75000000
       O392        O   0.56300015   0.13126662   0.43395000  -0.75000000
       O393        O   0.36963339   0.13086657   0.09109994  -0.75000000
       O394        O   0.46459995   0.22966682   0.18395000  -0.75000000
       O395        O   0.46419991   0.29703328   0.09109994  -0.75000000
       O396        O   0.56300015   0.20206671   0.18395000  -0.75000000
       O397        O   0.63036661   0.20246676   0.09109994  -0.75000000
       O398        O   0.53540005   0.10366651   0.18395000  -0.75000000
       O399        O   0.53580009   0.03630005   0.09109994  -0.75000000
       O400        O   0.43699985   0.13126662   0.18395000  -0.75000000
      Si401       Si   0.41779994   0.14360003   0.05570012   1.50000000
      Si402       Si   0.33333333   0.16666667   0.12500000   1.50000000
      Si403       Si   0.52306664   0.08446661   0.05570012   1.50000000
      Si404       Si   0.50000000   0.00000000   0.12500000   1.50000000
      Si405       Si   0.58220006   0.18973330   0.05570012   1.50000000
      Si406       Si   0.47693336   0.24886673   0.05570012   1.50000000
      Si407       Si   0.58220006   0.14360003   0.30570012   1.50000000
      Si408       Si   0.33333333   0.16666667   0.37500000   1.50000000
      Si409       Si   0.47693336   0.08446661   0.30570012   1.50000000
      Si410       Si   0.50000000   0.00000000   0.37500000   1.50000000
      Si411       Si   0.41779994   0.18973330   0.30570012   1.50000000
      Si412       Si   0.52306664   0.24886673   0.30570012   1.50000000
      Si413       Si   0.58220006   0.18973330   0.44429988   1.50000000
      Si414       Si   0.47693336   0.24886673   0.44429988   1.50000000
      Si415       Si   0.41779994   0.14360003   0.44429988   1.50000000
      Si416       Si   0.52306664   0.08446661   0.44429988   1.50000000
      Si417       Si   0.41779994   0.18973330   0.19429988   1.50000000
      Si418       Si   0.52306664   0.24886673   0.19429988   1.50000000
      Si419       Si   0.58220006   0.14360003   0.19429988   1.50000000
      Si420       Si   0.47693336   0.08446661   0.19429988   1.50000000
       O421        O   0.36963339   0.20246676   0.65890006  -0.75000000
       O422        O   0.39950004   0.13850012   0.50000000  -0.75000000
       O423        O   0.46459995   0.10366651   0.56605000  -0.75000000
       O424        O   0.46419991   0.03630005   0.65890006  -0.75000000
       O425        O   0.52816655   0.06616671   0.50000000  -0.75000000
       O426        O   0.56300015   0.13126662   0.56605000  -0.75000000
       O427        O   0.63036661   0.13086657   0.65890006  -0.75000000
       O428        O   0.60049996   0.19483322   0.50000000  -0.75000000
       O429        O   0.53540005   0.22966682   0.56605000  -0.75000000
       O430        O   0.53580009   0.29703328   0.65890006  -0.75000000
       O431        O   0.47183345   0.26716663   0.50000000  -0.75000000
       O432        O   0.43699985   0.20206671   0.56605000  -0.75000000
       O433        O   0.63036661   0.20246676   0.90890006  -0.75000000
       O434        O   0.60049996   0.13850012   0.75000000  -0.75000000
       O435        O   0.53540005   0.10366651   0.81605000  -0.75000000
       O436        O   0.53580009   0.03630005   0.90890006  -0.75000000
       O437        O   0.47183345   0.06616671   0.75000000  -0.75000000
       O438        O   0.43699985   0.13126662   0.81605000  -0.75000000
       O439        O   0.36963339   0.13086657   0.90890006  -0.75000000
       O440        O   0.39950004   0.19483322   0.75000000  -0.75000000
       O441        O   0.46459995   0.22966682   0.81605000  -0.75000000
       O442        O   0.46419991   0.29703328   0.90890006  -0.75000000
       O443        O   0.52816655   0.26716663   0.75000000  -0.75000000
       O444        O   0.56300015   0.20206671   0.81605000  -0.75000000
       O445        O   0.63036661   0.13086657   0.84109994  -0.75000000
       O446        O   0.53540005   0.22966682   0.93395000  -0.75000000
       O447        O   0.53580009   0.29703328   0.84109994  -0.75000000
       O448        O   0.43699985   0.20206671   0.93395000  -0.75000000
       O449        O   0.36963339   0.20246676   0.84109994  -0.75000000
       O450        O   0.46459995   0.10366651   0.93395000  -0.75000000
       O451        O   0.46419991   0.03630005   0.84109994  -0.75000000
       O452        O   0.56300015   0.13126662   0.93395000  -0.75000000
       O453        O   0.36963339   0.13086657   0.59109994  -0.75000000
       O454        O   0.46459995   0.22966682   0.68395000  -0.75000000
       O455        O   0.46419991   0.29703328   0.59109994  -0.75000000
       O456        O   0.56300015   0.20206671   0.68395000  -0.75000000
       O457        O   0.63036661   0.20246676   0.59109994  -0.75000000
       O458        O   0.53540005   0.10366651   0.68395000  -0.75000000
       O459        O   0.53580009   0.03630005   0.59109994  -0.75000000
       O460        O   0.43699985   0.13126662   0.68395000  -0.75000000
      Si461       Si   0.41779994   0.14360003   0.55570012   1.50000000
      Si462       Si   0.33333333   0.16666667   0.62500000   1.50000000
      Si463       Si   0.52306664   0.08446661   0.55570012   1.50000000
      Si464       Si   0.50000000   0.00000000   0.62500000   1.50000000
      Si465       Si   0.58220006   0.18973330   0.55570012   1.50000000
      Si466       Si   0.47693336   0.24886673   0.55570012   1.50000000
      Si467       Si   0.58220006   0.14360003   0.80570012   1.50000000
      Si468       Si   0.33333333   0.16666667   0.87500000   1.50000000
      Si469       Si   0.47693336   0.08446661   0.80570012   1.50000000
      Si470       Si   0.50000000   0.00000000   0.87500000   1.50000000
      Si471       Si   0.41779994   0.18973330   0.80570012   1.50000000
      Si472       Si   0.52306664   0.24886673   0.80570012   1.50000000
      Si473       Si   0.58220006   0.18973330   0.94429988   1.50000000
      Si474       Si   0.47693336   0.24886673   0.94429988   1.50000000
      Si475       Si   0.41779994   0.14360003   0.94429988   1.50000000
      Si476       Si   0.52306664   0.08446661   0.94429988   1.50000000
      Si477       Si   0.41779994   0.18973330   0.69429988   1.50000000
      Si478       Si   0.52306664   0.24886673   0.69429988   1.50000000
      Si479       Si   0.58220006   0.14360003   0.69429988   1.50000000
      Si480       Si   0.47693336   0.08446661   0.69429988   1.50000000
       O481        O   0.36963339   0.53580009   0.15890006  -0.75000000
       O482        O   0.39950004   0.47183345   0.00000000  -0.75000000
       O483        O   0.46459995   0.43699985   0.06605000  -0.75000000
       O484        O   0.46419991   0.36963339   0.15890006  -0.75000000
       O485        O   0.52816655   0.39950004   0.00000000  -0.75000000
       O486        O   0.56300015   0.46459995   0.06605000  -0.75000000
       O487        O   0.63036661   0.46419991   0.15890006  -0.75000000
       O488        O   0.60049996   0.52816655   0.00000000  -0.75000000
       O489        O   0.53540005   0.56300015   0.06605000  -0.75000000
       O490        O   0.53580009   0.63036661   0.15890006  -0.75000000
       O491        O   0.47183345   0.60049996   0.00000000  -0.75000000
       O492        O   0.43699985   0.53540005   0.06605000  -0.75000000
       O493        O   0.63036661   0.53580009   0.40890006  -0.75000000
       O494        O   0.60049996   0.47183345   0.25000000  -0.75000000
       O495        O   0.53540005   0.43699985   0.31605000  -0.75000000
       O496        O   0.53580009   0.36963339   0.40890006  -0.75000000
       O497        O   0.47183345   0.39950004   0.25000000  -0.75000000
       O498        O   0.43699985   0.46459995   0.31605000  -0.75000000
       O499        O   0.36963339   0.46419991   0.40890006  -0.75000000
       O500        O   0.39950004   0.52816655   0.25000000  -0.75000000
       O501        O   0.46459995   0.56300015   0.31605000  -0.75000000
       O502        O   0.46419991   0.63036661   0.40890006  -0.75000000
       O503        O   0.52816655   0.60049996   0.25000000  -0.75000000
       O504        O   0.56300015   0.53540005   0.31605000  -0.75000000
       O505        O   0.63036661   0.46419991   0.34109994  -0.75000000
       O506        O   0.53540005   0.56300015   0.43395000  -0.75000000
       O507        O   0.53580009   0.63036661   0.34109994  -0.75000000
       O508        O   0.43699985   0.53540005   0.43395000  -0.75000000
       O509        O   0.36963339   0.53580009   0.34109994  -0.75000000
       O510        O   0.46459995   0.43699985   0.43395000  -0.75000000
       O511        O   0.46419991   0.36963339   0.34109994  -0.75000000
       O512        O   0.56300015   0.46459995   0.43395000  -0.75000000
       O513        O   0.36963339   0.46419991   0.09109994  -0.75000000
       O514        O   0.46459995   0.56300015   0.18395000  -0.75000000
       O515        O   0.46419991   0.63036661   0.09109994  -0.75000000
       O516        O   0.56300015   0.53540005   0.18395000  -0.75000000
       O517        O   0.63036661   0.53580009   0.09109994  -0.75000000
       O518        O   0.53540005   0.43699985   0.18395000  -0.75000000
       O519        O   0.53580009   0.36963339   0.09109994  -0.75000000
       O520        O   0.43699985   0.46459995   0.18395000  -0.75000000
      Si521       Si   0.41779994   0.47693336   0.05570012   1.50000000
      Si522       Si   0.33333333   0.50000000   0.12500000   1.50000000
      Si523       Si   0.52306664   0.41779994   0.05570012   1.50000000
      Si524       Si   0.50000000   0.33333333   0.12500000   1.50000000
      Si525       Si   0.58220006   0.52306664   0.05570012   1.50000000
      Si526       Si   0.47693336   0.58220006   0.05570012   1.50000000
      Si527       Si   0.58220006   0.47693336   0.30570012   1.50000000
      Si528       Si   0.33333333   0.50000000   0.37500000   1.50000000
      Si529       Si   0.47693336   0.41779994   0.30570012   1.50000000
      Si530       Si   0.50000000   0.33333333   0.37500000   1.50000000
      Si531       Si   0.41779994   0.52306664   0.30570012   1.50000000
      Si532       Si   0.52306664   0.58220006   0.30570012   1.50000000
      Si533       Si   0.58220006   0.52306664   0.44429988   1.50000000
      Si534       Si   0.47693336   0.58220006   0.44429988   1.50000000
      Si535       Si   0.41779994   0.47693336   0.44429988   1.50000000
      Si536       Si   0.52306664   0.41779994   0.44429988   1.50000000
      Si537       Si   0.41779994   0.52306664   0.19429988   1.50000000
      Si538       Si   0.52306664   0.58220006   0.19429988   1.50000000
      Si539       Si   0.58220006   0.47693336   0.19429988   1.50000000
      Si540       Si   0.47693336   0.41779994   0.19429988   1.50000000
       O541        O   0.36963339   0.53580009   0.65890006  -0.75000000
       O542        O   0.39950004   0.47183345   0.50000000  -0.75000000
       O543        O   0.46459995   0.43699985   0.56605000  -0.75000000
       O544        O   0.46419991   0.36963339   0.65890006  -0.75000000
       O545        O   0.52816655   0.39950004   0.50000000  -0.75000000
       O546        O   0.56300015   0.46459995   0.56605000  -0.75000000
       O547        O   0.63036661   0.46419991   0.65890006  -0.75000000
       O548        O   0.60049996   0.52816655   0.50000000  -0.75000000
       O549        O   0.53540005   0.56300015   0.56605000  -0.75000000
       O550        O   0.53580009   0.63036661   0.65890006  -0.75000000
       O551        O   0.47183345   0.60049996   0.50000000  -0.75000000
       O552        O   0.43699985   0.53540005   0.56605000  -0.75000000
       O553        O   0.63036661   0.53580009   0.90890006  -0.75000000
       O554        O   0.60049996   0.47183345   0.75000000  -0.75000000
       O555        O   0.53540005   0.43699985   0.81605000  -0.75000000
       O556        O   0.53580009   0.36963339   0.90890006  -0.75000000
       O557        O   0.47183345   0.39950004   0.75000000  -0.75000000
       O558        O   0.43699985   0.46459995   0.81605000  -0.75000000
       O559        O   0.36963339   0.46419991   0.90890006  -0.75000000
       O560        O   0.39950004   0.52816655   0.75000000  -0.75000000
       O561        O   0.46459995   0.56300015   0.81605000  -0.75000000
       O562        O   0.46419991   0.63036661   0.90890006  -0.75000000
       O563        O   0.52816655   0.60049996   0.75000000  -0.75000000
       O564        O   0.56300015   0.53540005   0.81605000  -0.75000000
       O565        O   0.63036661   0.46419991   0.84109994  -0.75000000
       O566        O   0.53540005   0.56300015   0.93395000  -0.75000000
       O567        O   0.53580009   0.63036661   0.84109994  -0.75000000
       O568        O   0.43699985   0.53540005   0.93395000  -0.75000000
       O569        O   0.36963339   0.53580009   0.84109994  -0.75000000
       O570        O   0.46459995   0.43699985   0.93395000  -0.75000000
       O571        O   0.46419991   0.36963339   0.84109994  -0.75000000
       O572        O   0.56300015   0.46459995   0.93395000  -0.75000000
       O573        O   0.36963339   0.46419991   0.59109994  -0.75000000
       O574        O   0.46459995   0.56300015   0.68395000  -0.75000000
       O575        O   0.46419991   0.63036661   0.59109994  -0.75000000
       O576        O   0.56300015   0.53540005   0.68395000  -0.75000000
       O577        O   0.63036661   0.53580009   0.59109994  -0.75000000
       O578        O   0.53540005   0.43699985   0.68395000  -0.75000000
       O579        O   0.53580009   0.36963339   0.59109994  -0.75000000
       O580        O   0.43699985   0.46459995   0.68395000  -0.75000000
      Si581       Si   0.41779994   0.47693336   0.55570012   1.50000000
      Si582       Si   0.33333333   0.50000000   0.62500000   1.50000000
      Si583       Si   0.52306664   0.41779994   0.55570012   1.50000000
      Si584       Si   0.50000000   0.33333333   0.62500000   1.50000000
      Si585       Si   0.58220006   0.52306664   0.55570012   1.50000000
      Si586       Si   0.47693336   0.58220006   0.55570012   1.50000000
      Si587       Si   0.58220006   0.47693336   0.80570012   1.50000000
      Si588       Si   0.33333333   0.50000000   0.87500000   1.50000000
      Si589       Si   0.47693336   0.41779994   0.80570012   1.50000000
      Si590       Si   0.50000000   0.33333333   0.87500000   1.50000000
      Si591       Si   0.41779994   0.52306664   0.80570012   1.50000000
      Si592       Si   0.52306664   0.58220006   0.80570012   1.50000000
      Si593       Si   0.58220006   0.52306664   0.94429988   1.50000000
      Si594       Si   0.47693336   0.58220006   0.94429988   1.50000000
      Si595       Si   0.41779994   0.47693336   0.94429988   1.50000000
      Si596       Si   0.52306664   0.41779994   0.94429988   1.50000000
      Si597       Si   0.41779994   0.52306664   0.69429988   1.50000000
      Si598       Si   0.52306664   0.58220006   0.69429988   1.50000000
      Si599       Si   0.58220006   0.47693336   0.69429988   1.50000000
      Si600       Si   0.47693336   0.41779994   0.69429988   1.50000000
       O601        O   0.36963339   0.86913343   0.15890006  -0.75000000
       O602        O   0.39950004   0.80516678   0.00000000  -0.75000000
       O603        O   0.46459995   0.77033318   0.06605000  -0.75000000
       O604        O   0.46419991   0.70296672   0.15890006  -0.75000000
       O605        O   0.52816655   0.73283337   0.00000000  -0.75000000
       O606        O   0.56300015   0.79793329   0.06605000  -0.75000000
       O607        O   0.63036661   0.79753324   0.15890006  -0.75000000
       O608        O   0.60049996   0.86149988   0.00000000  -0.75000000
       O609        O   0.53540005   0.89633349   0.06605000  -0.75000000
       O610        O   0.53580009   0.96369995   0.15890006  -0.75000000
       O611        O   0.47183345   0.93383329   0.00000000  -0.75000000
       O612        O   0.43699985   0.86873338   0.06605000  -0.75000000
       O613        O   0.63036661   0.86913343   0.40890006  -0.75000000
       O614        O   0.60049996   0.80516678   0.25000000  -0.75000000
       O615        O   0.53540005   0.77033318   0.31605000  -0.75000000
       O616        O   0.53580009   0.70296672   0.40890006  -0.75000000
       O617        O   0.47183345   0.73283337   0.25000000  -0.75000000
       O618        O   0.43699985   0.79793329   0.31605000  -0.75000000
       O619        O   0.36963339   0.79753324   0.40890006  -0.75000000
       O620        O   0.39950004   0.86149988   0.25000000  -0.75000000
       O621        O   0.46459995   0.89633349   0.31605000  -0.75000000
       O622        O   0.46419991   0.96369995   0.40890006  -0.75000000
       O623        O   0.52816655   0.93383329   0.25000000  -0.75000000
       O624        O   0.56300015   0.86873338   0.31605000  -0.75000000
       O625        O   0.63036661   0.79753324   0.34109994  -0.75000000
       O626        O   0.53540005   0.89633349   0.43395000  -0.75000000
       O627        O   0.53580009   0.96369995   0.34109994  -0.75000000
       O628        O   0.43699985   0.86873338   0.43395000  -0.75000000
       O629        O   0.36963339   0.86913343   0.34109994  -0.75000000
       O630        O   0.46459995   0.77033318   0.43395000  -0.75000000
       O631        O   0.46419991   0.70296672   0.34109994  -0.75000000
       O632        O   0.56300015   0.79793329   0.43395000  -0.75000000
       O633        O   0.36963339   0.79753324   0.09109994  -0.75000000
       O634        O   0.46459995   0.89633349   0.18395000  -0.75000000
       O635        O   0.46419991   0.96369995   0.09109994  -0.75000000
       O636        O   0.56300015   0.86873338   0.18395000  -0.75000000
       O637        O   0.63036661   0.86913343   0.09109994  -0.75000000
       O638        O   0.53540005   0.77033318   0.18395000  -0.75000000
       O639        O   0.53580009   0.70296672   0.09109994  -0.75000000
       O640        O   0.43699985   0.79793329   0.18395000  -0.75000000
      Si641       Si   0.41779994   0.81026670   0.05570012   1.50000000
      Si642       Si   0.33333333   0.83333333   0.12500000   1.50000000
      Si643       Si   0.52306664   0.75113327   0.05570012   1.50000000
      Si644       Si   0.50000000   0.66666667   0.12500000   1.50000000
      Si645       Si   0.58220006   0.85639997   0.05570012   1.50000000
      Si646       Si   0.47693336   0.91553339   0.05570012   1.50000000
      Si647       Si   0.58220006   0.81026670   0.30570012   1.50000000
      Si648       Si   0.33333333   0.83333333   0.37500000   1.50000000
      Si649       Si   0.47693336   0.75113327   0.30570012   1.50000000
      Si650       Si   0.50000000   0.66666667   0.37500000   1.50000000
      Si651       Si   0.41779994   0.85639997   0.30570012   1.50000000
      Si652       Si   0.52306664   0.91553339   0.30570012   1.50000000
      Si653       Si   0.58220006   0.85639997   0.44429988   1.50000000
      Si654       Si   0.47693336   0.91553339   0.44429988   1.50000000
      Si655       Si   0.41779994   0.81026670   0.44429988   1.50000000
      Si656       Si   0.52306664   0.75113327   0.44429988   1.50000000
      Si657       Si   0.41779994   0.85639997   0.19429988   1.50000000
      Si658       Si   0.52306664   0.91553339   0.19429988   1.50000000
      Si659       Si   0.58220006   0.81026670   0.19429988   1.50000000
      Si660       Si   0.47693336   0.75113327   0.19429988   1.50000000
       O661        O   0.36963339   0.86913343   0.65890006  -0.75000000
       O662        O   0.39950004   0.80516678   0.50000000  -0.75000000
       O663        O   0.46459995   0.77033318   0.56605000  -0.75000000
       O664        O   0.46419991   0.70296672   0.65890006  -0.75000000
       O665        O   0.52816655   0.73283337   0.50000000  -0.75000000
       O666        O   0.56300015   0.79793329   0.56605000  -0.75000000
       O667        O   0.63036661   0.79753324   0.65890006  -0.75000000
       O668        O   0.60049996   0.86149988   0.50000000  -0.75000000
       O669        O   0.53540005   0.89633349   0.56605000  -0.75000000
       O670        O   0.53580009   0.96369995   0.65890006  -0.75000000
       O671        O   0.47183345   0.93383329   0.50000000  -0.75000000
       O672        O   0.43699985   0.86873338   0.56605000  -0.75000000
       O673        O   0.63036661   0.86913343   0.90890006  -0.75000000
       O674        O   0.60049996   0.80516678   0.75000000  -0.75000000
       O675        O   0.53540005   0.77033318   0.81605000  -0.75000000
       O676        O   0.53580009   0.70296672   0.90890006  -0.75000000
       O677        O   0.47183345   0.73283337   0.75000000  -0.75000000
       O678        O   0.43699985   0.79793329   0.81605000  -0.75000000
       O679        O   0.36963339   0.79753324   0.90890006  -0.75000000
       O680        O   0.39950004   0.86149988   0.75000000  -0.75000000
       O681        O   0.46459995   0.89633349   0.81605000  -0.75000000
       O682        O   0.46419991   0.96369995   0.90890006  -0.75000000
       O683        O   0.52816655   0.93383329   0.75000000  -0.75000000
       O684        O   0.56300015   0.86873338   0.81605000  -0.75000000
       O685        O   0.63036661   0.79753324   0.84109994  -0.75000000
       O686        O   0.53540005   0.89633349   0.93395000  -0.75000000
       O687        O   0.53580009   0.96369995   0.84109994  -0.75000000
       O688        O   0.43699985   0.86873338   0.93395000  -0.75000000
       O689        O   0.36963339   0.86913343   0.84109994  -0.75000000
       O690        O   0.46459995   0.77033318   0.93395000  -0.75000000
       O691        O   0.46419991   0.70296672   0.84109994  -0.75000000
       O692        O   0.56300015   0.79793329   0.93395000  -0.75000000
       O693        O   0.36963339   0.79753324   0.59109994  -0.75000000
       O694        O   0.46459995   0.89633349   0.68395000  -0.75000000
       O695        O   0.46419991   0.96369995   0.59109994  -0.75000000
       O696        O   0.56300015   0.86873338   0.68395000  -0.75000000
       O697        O   0.63036661   0.86913343   0.59109994  -0.75000000
       O698        O   0.53540005   0.77033318   0.68395000  -0.75000000
       O699        O   0.53580009   0.70296672   0.59109994  -0.75000000
       O700        O   0.43699985   0.79793329   0.68395000  -0.75000000
      Si701       Si   0.41779994   0.81026670   0.55570012   1.50000000
      Si702       Si   0.33333333   0.83333333   0.62500000   1.50000000
      Si703       Si   0.52306664   0.75113327   0.55570012   1.50000000
      Si704       Si   0.50000000   0.66666667   0.62500000   1.50000000
      Si705       Si   0.58220006   0.85639997   0.55570012   1.50000000
      Si706       Si   0.47693336   0.91553339   0.55570012   1.50000000
      Si707       Si   0.58220006   0.81026670   0.80570012   1.50000000
      Si708       Si   0.33333333   0.83333333   0.87500000   1.50000000
      Si709       Si   0.47693336   0.75113327   0.80570012   1.50000000
      Si710       Si   0.50000000   0.66666667   0.87500000   1.50000000
      Si711       Si   0.41779994   0.85639997   0.80570012   1.50000000
      Si712       Si   0.52306664   0.91553339   0.80570012   1.50000000
      Si713       Si   0.58220006   0.85639997   0.94429988   1.50000000
      Si714       Si   0.47693336   0.91553339   0.94429988   1.50000000
      Si715       Si   0.41779994   0.81026670   0.94429988   1.50000000
      Si716       Si   0.52306664   0.75113327   0.94429988   1.50000000
      Si717       Si   0.41779994   0.85639997   0.69429988   1.50000000
      Si718       Si   0.52306664   0.91553339   0.69429988   1.50000000
      Si719       Si   0.58220006   0.81026670   0.69429988   1.50000000
      Si720       Si   0.47693336   0.75113327   0.69429988   1.50000000
       O721        O   0.70296672   0.20246676   0.15890006  -0.75000000
       O722        O   0.73283337   0.13850012   0.00000000  -0.75000000
       O723        O   0.79793329   0.10366651   0.06605000  -0.75000000
       O724        O   0.79753324   0.03630005   0.15890006  -0.75000000
       O725        O   0.86149988   0.06616671   0.00000000  -0.75000000
       O726        O   0.89633349   0.13126662   0.06605000  -0.75000000
       O727        O   0.96369995   0.13086657   0.15890006  -0.75000000
       O728        O   0.93383329   0.19483322   0.00000000  -0.75000000
       O729        O   0.86873338   0.22966682   0.06605000  -0.75000000
       O730        O   0.86913343   0.29703328   0.15890006  -0.75000000
       O731        O   0.80516678   0.26716663   0.00000000  -0.75000000
       O732        O   0.77033318   0.20206671   0.06605000  -0.75000000
       O733        O   0.96369995   0.20246676   0.40890006  -0.75000000
       O734        O   0.93383329   0.13850012   0.25000000  -0.75000000
       O735        O   0.86873338   0.10366651   0.31605000  -0.75000000
       O736        O   0.86913343   0.03630005   0.40890006  -0.75000000
       O737        O   0.80516678   0.06616671   0.25000000  -0.75000000
       O738        O   0.77033318   0.13126662   0.31605000  -0.75000000
       O739        O   0.70296672   0.13086657   0.40890006  -0.75000000
       O740        O   0.73283337   0.19483322   0.25000000  -0.75000000
       O741        O   0.79793329   0.22966682   0.31605000  -0.75000000
       O742        O   0.79753324   0.29703328   0.40890006  -0.75000000
       O743        O   0.86149988   0.26716663   0.25000000  -0.75000000
       O744        O   0.89633349   0.20206671   0.31605000  -0.75000000
       O745        O   0.96369995   0.13086657   0.34109994  -0.75000000
       O746        O   0.86873338   0.22966682   0.43395000  -0.75000000
       O747        O   0.86913343   0.29703328   0.34109994  -0.75000000
       O748        O   0.77033318   0.20206671   0.43395000  -0.75000000
       O749        O   0.70296672   0.20246676   0.34109994  -0.75000000
       O750        O   0.79793329   0.10366651   0.43395000  -0.75000000
       O751        O   0.79753324   0.03630005   0.34109994  -0.75000000
       O752        O   0.89633349   0.13126662   0.43395000  -0.75000000
       O753        O   0.70296672   0.13086657   0.09109994  -0.75000000
       O754        O   0.79793329   0.22966682   0.18395000  -0.75000000
       O755        O   0.79753324   0.29703328   0.09109994  -0.75000000
       O756        O   0.89633349   0.20206671   0.18395000  -0.75000000
       O757        O   0.96369995   0.20246676   0.09109994  -0.75000000
       O758        O   0.86873338   0.10366651   0.18395000  -0.75000000
       O759        O   0.86913343   0.03630005   0.09109994  -0.75000000
       O760        O   0.77033318   0.13126662   0.18395000  -0.75000000
      Si761       Si   0.75113327   0.14360003   0.05570012   1.50000000
      Si762       Si   0.66666667   0.16666667   0.12500000   1.50000000
      Si763       Si   0.85639997   0.08446661   0.05570012   1.50000000
      Si764       Si   0.83333333   0.00000000   0.12500000   1.50000000
      Si765       Si   0.91553339   0.18973330   0.05570012   1.50000000
      Si766       Si   0.81026670   0.24886673   0.05570012   1.50000000
      Si767       Si   0.91553339   0.14360003   0.30570012   1.50000000
      Si768       Si   0.66666667   0.16666667   0.37500000   1.50000000
      Si769       Si   0.81026670   0.08446661   0.30570012   1.50000000
      Si770       Si   0.83333333   0.00000000   0.37500000   1.50000000
      Si771       Si   0.75113327   0.18973330   0.30570012   1.50000000
      Si772       Si   0.85639997   0.24886673   0.30570012   1.50000000
      Si773       Si   0.91553339   0.18973330   0.44429988   1.50000000
      Si774       Si   0.81026670   0.24886673   0.44429988   1.50000000
      Si775       Si   0.75113327   0.14360003   0.44429988   1.50000000
      Si776       Si   0.85639997   0.08446661   0.44429988   1.50000000
      Si777       Si   0.75113327   0.18973330   0.19429988   1.50000000
      Si778       Si   0.85639997   0.24886673   0.19429988   1.50000000
      Si779       Si   0.91553339   0.14360003   0.19429988   1.50000000
      Si780       Si   0.81026670   0.08446661   0.19429988   1.50000000
       O781        O   0.70296672   0.20246676   0.65890006  -0.75000000
       O782        O   0.73283337   0.13850012   0.50000000  -0.75000000
       O783        O   0.79793329   0.10366651   0.56605000  -0.75000000
       O784        O   0.79753324   0.03630005   0.65890006  -0.75000000
       O785        O   0.86149988   0.06616671   0.50000000  -0.75000000
       O786        O   0.89633349   0.13126662   0.56605000  -0.75000000
       O787        O   0.96369995   0.13086657   0.65890006  -0.75000000
       O788        O   0.93383329   0.19483322   0.50000000  -0.75000000
       O789        O   0.86873338   0.22966682   0.56605000  -0.75000000
       O790        O   0.86913343   0.29703328   0.65890006  -0.75000000
       O791        O   0.80516678   0.26716663   0.50000000  -0.75000000
       O792        O   0.77033318   0.20206671   0.56605000  -0.75000000
       O793        O   0.96369995   0.20246676   0.90890006  -0.75000000
       O794        O   0.93383329   0.13850012   0.75000000  -0.75000000
       O795        O   0.86873338   0.10366651   0.81605000  -0.75000000
       O796        O   0.86913343   0.03630005   0.90890006  -0.75000000
       O797        O   0.80516678   0.06616671   0.75000000  -0.75000000
       O798        O   0.77033318   0.13126662   0.81605000  -0.75000000
       O799        O   0.70296672   0.13086657   0.90890006  -0.75000000
       O800        O   0.73283337   0.19483322   0.75000000  -0.75000000
       O801        O   0.79793329   0.22966682   0.81605000  -0.75000000
       O802        O   0.79753324   0.29703328   0.90890006  -0.75000000
       O803        O   0.86149988   0.26716663   0.75000000  -0.75000000
       O804        O   0.89633349   0.20206671   0.81605000  -0.75000000
       O805        O   0.96369995   0.13086657   0.84109994  -0.75000000
       O806        O   0.86873338   0.22966682   0.93395000  -0.75000000
       O807        O   0.86913343   0.29703328   0.84109994  -0.75000000
       O808        O   0.77033318   0.20206671   0.93395000  -0.75000000
       O809        O   0.70296672   0.20246676   0.84109994  -0.75000000
       O810        O   0.79793329   0.10366651   0.93395000  -0.75000000
       O811        O   0.79753324   0.03630005   0.84109994  -0.75000000
       O812        O   0.89633349   0.13126662   0.93395000  -0.75000000
       O813        O   0.70296672   0.13086657   0.59109994  -0.75000000
       O814        O   0.79793329   0.22966682   0.68395000  -0.75000000
       O815        O   0.79753324   0.29703328   0.59109994  -0.75000000
       O816        O   0.89633349   0.20206671   0.68395000  -0.75000000
       O817        O   0.96369995   0.20246676   0.59109994  -0.75000000
       O818        O   0.86873338   0.10366651   0.68395000  -0.75000000
       O819        O   0.86913343   0.03630005   0.59109994  -0.75000000
       O820        O   0.77033318   0.13126662   0.68395000  -0.75000000
      Si821       Si   0.75113327   0.14360003   0.55570012   1.50000000
      Si822       Si   0.66666667   0.16666667   0.62500000   1.50000000
      Si823       Si   0.85639997   0.08446661   0.55570012   1.50000000
      Si824       Si   0.83333333   0.00000000   0.62500000   1.50000000
      Si825       Si   0.91553339   0.18973330   0.55570012   1.50000000
      Si826       Si   0.81026670   0.24886673   0.55570012   1.50000000
      Si827       Si   0.91553339   0.14360003   0.80570012   1.50000000
      Si828       Si   0.66666667   0.16666667   0.87500000   1.50000000
      Si829       Si   0.81026670   0.08446661   0.80570012   1.50000000
      Si830       Si   0.83333333   0.00000000   0.87500000   1.50000000
      Si831       Si   0.75113327   0.18973330   0.80570012   1.50000000
      Si832       Si   0.85639997   0.24886673   0.80570012   1.50000000
      Si833       Si   0.91553339   0.18973330   0.94429988   1.50000000
      Si834       Si   0.81026670   0.24886673   0.94429988   1.50000000
      Si835       Si   0.75113327   0.14360003   0.94429988   1.50000000
      Si836       Si   0.85639997   0.08446661   0.94429988   1.50000000
      Si837       Si   0.75113327   0.18973330   0.69429988   1.50000000
      Si838       Si   0.85639997   0.24886673   0.69429988   1.50000000
      Si839       Si   0.91553339   0.14360003   0.69429988   1.50000000
      Si840       Si   0.81026670   0.08446661   0.69429988   1.50000000
       O841        O   0.70296672   0.53580009   0.15890006  -0.75000000
       O842        O   0.73283337   0.47183345   0.00000000  -0.75000000
       O843        O   0.79793329   0.43699985   0.06605000  -0.75000000
       O844        O   0.79753324   0.36963339   0.15890006  -0.75000000
       O845        O   0.86149988   0.39950004   0.00000000  -0.75000000
       O846        O   0.89633349   0.46459995   0.06605000  -0.75000000
       O847        O   0.96369995   0.46419991   0.15890006  -0.75000000
       O848        O   0.93383329   0.52816655   0.00000000  -0.75000000
       O849        O   0.86873338   0.56300015   0.06605000  -0.75000000
       O850        O   0.86913343   0.63036661   0.15890006  -0.75000000
       O851        O   0.80516678   0.60049996   0.00000000  -0.75000000
       O852        O   0.77033318   0.53540005   0.06605000  -0.75000000
       O853        O   0.96369995   0.53580009   0.40890006  -0.75000000
       O854        O   0.93383329   0.47183345   0.25000000  -0.75000000
       O855        O   0.86873338   0.43699985   0.31605000  -0.75000000
       O856        O   0.86913343   0.36963339   0.40890006  -0.75000000
       O857        O   0.80516678   0.39950004   0.25000000  -0.75000000
       O858        O   0.77033318   0.46459995   0.31605000  -0.75000000
       O859        O   0.70296672   0.46419991   0.40890006  -0.75000000
       O860        O   0.73283337   0.52816655   0.25000000  -0.75000000
       O861        O   0.79793329   0.56300015   0.31605000  -0.75000000
       O862        O   0.79753324   0.63036661   0.40890006  -0.75000000
       O863        O   0.86149988   0.60049996   0.25000000  -0.75000000
       O864        O   0.89633349   0.53540005   0.31605000  -0.75000000
       O865        O   0.96369995   0.46419991   0.34109994  -0.75000000
       O866        O   0.86873338   0.56300015   0.43395000  -0.75000000
       O867        O   0.86913343   0.63036661   0.34109994  -0.75000000
       O868        O   0.77033318   0.53540005   0.43395000  -0.75000000
       O869        O   0.70296672   0.53580009   0.34109994  -0.75000000
       O870        O   0.79793329   0.43699985   0.43395000  -0.75000000
       O871        O   0.79753324   0.36963339   0.34109994  -0.75000000
       O872        O   0.89633349   0.46459995   0.43395000  -0.75000000
       O873        O   0.70296672   0.46419991   0.09109994  -0.75000000
       O874        O   0.79793329   0.56300015   0.18395000  -0.75000000
       O875        O   0.79753324   0.63036661   0.09109994  -0.75000000
       O876        O   0.89633349   0.53540005   0.18395000  -0.75000000
       O877        O   0.96369995   0.53580009   0.09109994  -0.75000000
       O878        O   0.86873338   0.43699985   0.18395000  -0.75000000
       O879        O   0.86913343   0.36963339   0.09109994  -0.75000000
       O880        O   0.77033318   0.46459995   0.18395000  -0.75000000
      Si881       Si   0.75113327   0.47693336   0.05570012   1.50000000
      Si882       Si   0.66666667   0.50000000   0.12500000   1.50000000
      Si883       Si   0.85639997   0.41779994   0.05570012   1.50000000
      Si884       Si   0.83333333   0.33333333   0.12500000   1.50000000
      Si885       Si   0.91553339   0.52306664   0.05570012   1.50000000
      Si886       Si   0.81026670   0.58220006   0.05570012   1.50000000
      Si887       Si   0.91553339   0.47693336   0.30570012   1.50000000
      Si888       Si   0.66666667   0.50000000   0.37500000   1.50000000
      Si889       Si   0.81026670   0.41779994   0.30570012   1.50000000
      Si890       Si   0.83333333   0.33333333   0.37500000   1.50000000
      Si891       Si   0.75113327   0.52306664   0.30570012   1.50000000
      Si892       Si   0.85639997   0.58220006   0.30570012   1.50000000
      Si893       Si   0.91553339   0.52306664   0.44429988   1.50000000
      Si894       Si   0.81026670   0.58220006   0.44429988   1.50000000
      Si895       Si   0.75113327   0.47693336   0.44429988   1.50000000
      Si896       Si   0.85639997   0.41779994   0.44429988   1.50000000
      Si897       Si   0.75113327   0.52306664   0.19429988   1.50000000
      Si898       Si   0.85639997   0.58220006   0.19429988   1.50000000
      Si899       Si   0.91553339   0.47693336   0.19429988   1.50000000
      Si900       Si   0.81026670   0.41779994   0.19429988   1.50000000
       O901        O   0.70296672   0.53580009   0.65890006  -0.75000000
       O902        O   0.73283337   0.47183345   0.50000000  -0.75000000
       O903        O   0.79793329   0.43699985   0.56605000  -0.75000000
       O904        O   0.79753324   0.36963339   0.65890006  -0.75000000
       O905        O   0.86149988   0.39950004   0.50000000  -0.75000000
       O906        O   0.89633349   0.46459995   0.56605000  -0.75000000
       O907        O   0.96369995   0.46419991   0.65890006  -0.75000000
       O908        O   0.93383329   0.52816655   0.50000000  -0.75000000
       O909        O   0.86873338   0.56300015   0.56605000  -0.75000000
       O910        O   0.86913343   0.63036661   0.65890006  -0.75000000
       O911        O   0.80516678   0.60049996   0.50000000  -0.75000000
       O912        O   0.77033318   0.53540005   0.56605000  -0.75000000
       O913        O   0.96369995   0.53580009   0.90890006  -0.75000000
       O914        O   0.93383329   0.47183345   0.75000000  -0.75000000
       O915        O   0.86873338   0.43699985   0.81605000  -0.75000000
       O916        O   0.86913343   0.36963339   0.90890006  -0.75000000
       O917        O   0.80516678   0.39950004   0.75000000  -0.75000000
       O918        O   0.77033318   0.46459995   0.81605000  -0.75000000
       O919        O   0.70296672   0.46419991   0.90890006  -0.75000000
       O920        O   0.73283337   0.52816655   0.75000000  -0.75000000
       O921        O   0.79793329   0.56300015   0.81605000  -0.75000000
       O922        O   0.79753324   0.63036661   0.90890006  -0.75000000
       O923        O   0.86149988   0.60049996   0.75000000  -0.75000000
       O924        O   0.89633349   0.53540005   0.81605000  -0.75000000
       O925        O   0.96369995   0.46419991   0.84109994  -0.75000000
       O926        O   0.86873338   0.56300015   0.93395000  -0.75000000
       O927        O   0.86913343   0.63036661   0.84109994  -0.75000000
       O928        O   0.77033318   0.53540005   0.93395000  -0.75000000
       O929        O   0.70296672   0.53580009   0.84109994  -0.75000000
       O930        O   0.79793329   0.43699985   0.93395000  -0.75000000
       O931        O   0.79753324   0.36963339   0.84109994  -0.75000000
       O932        O   0.89633349   0.46459995   0.93395000  -0.75000000
       O933        O   0.70296672   0.46419991   0.59109994  -0.75000000
       O934        O   0.79793329   0.56300015   0.68395000  -0.75000000
       O935        O   0.79753324   0.63036661   0.59109994  -0.75000000
       O936        O   0.89633349   0.53540005   0.68395000  -0.75000000
       O937        O   0.96369995   0.53580009   0.59109994  -0.75000000
       O938        O   0.86873338   0.43699985   0.68395000  -0.75000000
       O939        O   0.86913343   0.36963339   0.59109994  -0.75000000
       O940        O   0.77033318   0.46459995   0.68395000  -0.75000000
      Si941       Si   0.75113327   0.47693336   0.55570012   1.50000000
      Si942       Si   0.66666667   0.50000000   0.62500000   1.50000000
      Si943       Si   0.85639997   0.41779994   0.55570012   1.50000000
      Si944       Si   0.83333333   0.33333333   0.62500000   1.50000000
      Si945       Si   0.91553339   0.52306664   0.55570012   1.50000000
      Si946       Si   0.81026670   0.58220006   0.55570012   1.50000000
      Si947       Si   0.91553339   0.47693336   0.80570012   1.50000000
      Si948       Si   0.66666667   0.50000000   0.87500000   1.50000000
      Si949       Si   0.81026670   0.41779994   0.80570012   1.50000000
      Si950       Si   0.83333333   0.33333333   0.87500000   1.50000000
      Si951       Si   0.75113327   0.52306664   0.80570012   1.50000000
      Si952       Si   0.85639997   0.58220006   0.80570012   1.50000000
      Si953       Si   0.91553339   0.52306664   0.94429988   1.50000000
      Si954       Si   0.81026670   0.58220006   0.94429988   1.50000000
      Si955       Si   0.75113327   0.47693336   0.94429988   1.50000000
      Si956       Si   0.85639997   0.41779994   0.94429988   1.50000000
      Si957       Si   0.75113327   0.52306664   0.69429988   1.50000000
      Si958       Si   0.85639997   0.58220006   0.69429988   1.50000000
      Si959       Si   0.91553339   0.47693336   0.69429988   1.50000000
      Si960       Si   0.81026670   0.41779994   0.69429988   1.50000000
       O961        O   0.70296672   0.86913343   0.15890006  -0.75000000
       O962        O   0.73283337   0.80516678   0.00000000  -0.75000000
       O963        O   0.79793329   0.77033318   0.06605000  -0.75000000
       O964        O   0.79753324   0.70296672   0.15890006  -0.75000000
       O965        O   0.86149988   0.73283337   0.00000000  -0.75000000
       O966        O   0.89633349   0.79793329   0.06605000  -0.75000000
       O967        O   0.96369995   0.79753324   0.15890006  -0.75000000
       O968        O   0.93383329   0.86149988   0.00000000  -0.75000000
       O969        O   0.86873338   0.89633349   0.06605000  -0.75000000
       O970        O   0.86913343   0.96369995   0.15890006  -0.75000000
       O971        O   0.80516678   0.93383329   0.00000000  -0.75000000
       O972        O   0.77033318   0.86873338   0.06605000  -0.75000000
       O973        O   0.96369995   0.86913343   0.40890006  -0.75000000
       O974        O   0.93383329   0.80516678   0.25000000  -0.75000000
       O975        O   0.86873338   0.77033318   0.31605000  -0.75000000
       O976        O   0.86913343   0.70296672   0.40890006  -0.75000000
       O977        O   0.80516678   0.73283337   0.25000000  -0.75000000
       O978        O   0.77033318   0.79793329   0.31605000  -0.75000000
       O979        O   0.70296672   0.79753324   0.40890006  -0.75000000
       O980        O   0.73283337   0.86149988   0.25000000  -0.75000000
       O981        O   0.79793329   0.89633349   0.31605000  -0.75000000
       O982        O   0.79753324   0.96369995   0.40890006  -0.75000000
       O983        O   0.86149988   0.93383329   0.25000000  -0.75000000
       O984        O   0.89633349   0.86873338   0.31605000  -0.75000000
       O985        O   0.96369995   0.79753324   0.34109994  -0.75000000
       O986        O   0.86873338   0.89633349   0.43395000  -0.75000000
       O987        O   0.86913343   0.96369995   0.34109994  -0.75000000
       O988        O   0.77033318   0.86873338   0.43395000  -0.75000000
       O989        O   0.70296672   0.86913343   0.34109994  -0.75000000
       O990        O   0.79793329   0.77033318   0.43395000  -0.75000000
       O991        O   0.79753324   0.70296672   0.34109994  -0.75000000
       O992        O   0.89633349   0.79793329   0.43395000  -0.75000000
       O993        O   0.70296672   0.79753324   0.09109994  -0.75000000
       O994        O   0.79793329   0.89633349   0.18395000  -0.75000000
       O995        O   0.79753324   0.96369995   0.09109994  -0.75000000
       O996        O   0.89633349   0.86873338   0.18395000  -0.75000000
       O997        O   0.96369995   0.86913343   0.09109994  -0.75000000
       O998        O   0.86873338   0.77033318   0.18395000  -0.75000000
       O999        O   0.86913343   0.70296672   0.09109994  -0.75000000
       O1000       O   0.77033318   0.79793329   0.18395000  -0.75000000
      Si1001      Si   0.75113327   0.81026670   0.05570012   1.50000000
      Si1002      Si   0.66666667   0.83333333   0.12500000   1.50000000
      Si1003      Si   0.85639997   0.75113327   0.05570012   1.50000000
      Si1004      Si   0.83333333   0.66666667   0.12500000   1.50000000
      Si1005      Si   0.91553339   0.85639997   0.05570012   1.50000000
      Si1006      Si   0.81026670   0.91553339   0.05570012   1.50000000
      Si1007      Si   0.91553339   0.81026670   0.30570012   1.50000000
      Si1008      Si   0.66666667   0.83333333   0.37500000   1.50000000
      Si1009      Si   0.81026670   0.75113327   0.30570012   1.50000000
      Si1010      Si   0.83333333   0.66666667   0.37500000   1.50000000
      Si1011      Si   0.75113327   0.85639997   0.30570012   1.50000000
      Si1012      Si   0.85639997   0.91553339   0.30570012   1.50000000
      Si1013      Si   0.91553339   0.85639997   0.44429988   1.50000000
      Si1014      Si   0.81026670   0.91553339   0.44429988   1.50000000
      Si1015      Si   0.75113327   0.81026670   0.44429988   1.50000000
      Si1016      Si   0.85639997   0.75113327   0.44429988   1.50000000
      Si1017      Si   0.75113327   0.85639997   0.19429988   1.50000000
      Si1018      Si   0.85639997   0.91553339   0.19429988   1.50000000
      Si1019      Si   0.91553339   0.81026670   0.19429988   1.50000000
      Si1020      Si   0.81026670   0.75113327   0.19429988   1.50000000
       O1021       O   0.70296672   0.86913343   0.65890006  -0.75000000
       O1022       O   0.73283337   0.80516678   0.50000000  -0.75000000
       O1023       O   0.79793329   0.77033318   0.56605000  -0.75000000
       O1024       O   0.79753324   0.70296672   0.65890006  -0.75000000
       O1025       O   0.86149988   0.73283337   0.50000000  -0.75000000
       O1026       O   0.89633349   0.79793329   0.56605000  -0.75000000
       O1027       O   0.96369995   0.79753324   0.65890006  -0.75000000
       O1028       O   0.93383329   0.86149988   0.50000000  -0.75000000
       O1029       O   0.86873338   0.89633349   0.56605000  -0.75000000
       O1030       O   0.86913343   0.96369995   0.65890006  -0.75000000
       O1031       O   0.80516678   0.93383329   0.50000000  -0.75000000
       O1032       O   0.77033318   0.86873338   0.56605000  -0.75000000
       O1033       O   0.96369995   0.86913343   0.90890006  -0.75000000
       O1034       O   0.93383329   0.80516678   0.75000000  -0.75000000
       O1035       O   0.86873338   0.77033318   0.81605000  -0.75000000
       O1036       O   0.86913343   0.70296672   0.90890006  -0.75000000
       O1037       O   0.80516678   0.73283337   0.75000000  -0.75000000
       O1038       O   0.77033318   0.79793329   0.81605000  -0.75000000
       O1039       O   0.70296672   0.79753324   0.90890006  -0.75000000
       O1040       O   0.73283337   0.86149988   0.75000000  -0.75000000
       O1041       O   0.79793329   0.89633349   0.81605000  -0.75000000
       O1042       O   0.79753324   0.96369995   0.90890006  -0.75000000
       O1043       O   0.86149988   0.93383329   0.75000000  -0.75000000
       O1044       O   0.89633349   0.86873338   0.81605000  -0.75000000
       O1045       O   0.96369995   0.79753324   0.84109994  -0.75000000
       O1046       O   0.86873338   0.89633349   0.93395000  -0.75000000
       O1047       O   0.86913343   0.96369995   0.84109994  -0.75000000
       O1048       O   0.77033318   0.86873338   0.93395000  -0.75000000
       O1049       O   0.70296672   0.86913343   0.84109994  -0.75000000
       O1050       O   0.79793329   0.77033318   0.93395000  -0.75000000
       O1051       O   0.79753324   0.70296672   0.84109994  -0.75000000
       O1052       O   0.89633349   0.79793329   0.93395000  -0.75000000
       O1053       O   0.70296672   0.79753324   0.59109994  -0.75000000
       O1054       O   0.79793329   0.89633349   0.68395000  -0.75000000
       O1055       O   0.79753324   0.96369995   0.59109994  -0.75000000
       O1056       O   0.89633349   0.86873338   0.68395000  -0.75000000
       O1057       O   0.96369995   0.86913343   0.59109994  -0.75000000
       O1058       O   0.86873338   0.77033318   0.68395000  -0.75000000
       O1059       O   0.86913343   0.70296672   0.59109994  -0.75000000
       O1060       O   0.77033318   0.79793329   0.68395000  -0.75000000
      Si1061      Si   0.75113327   0.81026670   0.55570012   1.50000000
      Si1062      Si   0.66666667   0.83333333   0.62500000   1.50000000
      Si1063      Si   0.85639997   0.75113327   0.55570012   1.50000000
      Si1064      Si   0.83333333   0.66666667   0.62500000   1.50000000
      Si1065      Si   0.91553339   0.85639997   0.55570012   1.50000000
      Si1066      Si   0.81026670   0.91553339   0.55570012   1.50000000
      Si1067      Si   0.91553339   0.81026670   0.80570012   1.50000000
      Si1068      Si   0.66666667   0.83333333   0.87500000   1.50000000
      Si1069      Si   0.81026670   0.75113327   0.80570012   1.50000000
      Si1070      Si   0.83333333   0.66666667   0.87500000   1.50000000
      Si1071      Si   0.75113327   0.85639997   0.80570012   1.50000000
      Si1072      Si   0.85639997   0.91553339   0.80570012   1.50000000
      Si1073      Si   0.91553339   0.85639997   0.94429988   1.50000000
      Si1074      Si   0.81026670   0.91553339   0.94429988   1.50000000
      Si1075      Si   0.75113327   0.81026670   0.94429988   1.50000000
      Si1076      Si   0.85639997   0.75113327   0.94429988   1.50000000
      Si1077      Si   0.75113327   0.85639997   0.69429988   1.50000000
      Si1078      Si   0.85639997   0.91553339   0.69429988   1.50000000
      Si1079      Si   0.91553339   0.81026670   0.69429988   1.50000000
      Si1080      Si   0.81026670   0.75113327   0.69429988   1.50000000
