#======================================================================
# Crystal Data Generated By AuToFF
#----------------------------------------------------------------------

data_AuToFF_phase_1

_cell_length_a                         26.0220
_cell_length_b                         26.0220
_cell_length_c                         27.8380
_cell_angle_alpha                      90.00
_cell_angle_beta                       90.00
_cell_angle_gamma                      90.00
_symmetry_space_group_name_H-M_alt     'P 1'
_symmetry_space_group_IT_number        1

loop_
_space_group_symop_operation_xyz
   'x, y, z'

loop_
   _atom_site_label
   _atom_site_type_symbol
   _atom_site_fract_x
   _atom_site_fract_y
   _atom_site_fract_z
   _atom_site_charge
      Si1         Si   0.08446661   0.14360003   0.05570012   0.50000000
      Si2         Si   0.24886673   0.14360003   0.19429988   0.50000000
      Si3         Si   0.18973330   0.24886673   0.19429988   0.50000000
      Si4         Si   0.24886673   0.14360003   0.30570012   0.50000000
      Si5         Si   0.18973330   0.24886673   0.30570012   0.50000000
      Si6         Si   0.24886673   0.18973330   0.05570012   0.50000000
      Si7         Si   0.14360003   0.24886673   0.05570012   0.50000000
      Si8         Si   0.24886673   0.18973330   0.44429988   0.50000000
      Si9         Si   0.14360003   0.24886673   0.44429988   0.50000000
      Si10        Si   0.18973330   0.08446661   0.05570012   0.50000000
      Si11        Si   0.08446661   0.14360003   0.44429988   0.50000000
      Si12        Si   0.18973330   0.08446661   0.44429988   0.50000000
      Si13        Si   0.08446661   0.18973330   0.19429988   0.50000000
      Si14        Si   0.14360003   0.08446661   0.19429988   0.50000000
      Si15        Si   0.08446661   0.18973330   0.30570012   0.50000000
      Si16        Si   0.14360003   0.08446661   0.30570012   0.50000000
      Si17        Si   0.00000000   0.16666667   0.12500000   0.50000000
      Si18        Si   0.16666667   0.00000000   0.12500000   0.50000000
      Si19        Si   0.00000000   0.16666667   0.37500000   0.50000000
      Si20        Si   0.16666667   0.00000000   0.37500000   0.50000000
       O21         O   0.03630005   0.20246676   0.15890006   0.25000000
       O22         O   0.29703328   0.20246676   0.09109994   0.25000000
       O23         O   0.13086657   0.29703328   0.09109994   0.25000000
       O24         O   0.29703328   0.20246676   0.40890006   0.25000000
       O25         O   0.13086657   0.29703328   0.40890006   0.25000000
       O26         O   0.29703328   0.13086657   0.15890006   0.25000000
       O27         O   0.20246676   0.29703328   0.15890006   0.25000000
       O28         O   0.29703328   0.13086657   0.34109994   0.25000000
       O29         O   0.20246676   0.29703328   0.34109994   0.25000000
       O30         O   0.13086657   0.03630005   0.15890006   0.25000000
       O31         O   0.03630005   0.20246676   0.34109994   0.25000000
       O32         O   0.13086657   0.03630005   0.34109994   0.25000000
       O33         O   0.03630005   0.13086657   0.09109994   0.25000000
       O34         O   0.20246676   0.03630005   0.09109994   0.25000000
       O35         O   0.03630005   0.13086657   0.40890006   0.25000000
       O36         O   0.20246676   0.03630005   0.40890006   0.25000000
       O37         O   0.06616671   0.13850012   0.00000000   0.25000000
       O38         O   0.26716663   0.13850012   0.25000000   0.25000000
       O39         O   0.19483322   0.26716663   0.25000000   0.25000000
       O40         O   0.26716663   0.19483322   0.00000000   0.25000000
       O41         O   0.13850012   0.26716663   0.00000000   0.25000000
       O42         O   0.19483322   0.06616671   0.00000000   0.25000000
       O43         O   0.06616671   0.19483322   0.25000000   0.25000000
       O44         O   0.13850012   0.06616671   0.25000000   0.25000000
       O45         O   0.13126662   0.10366651   0.06605000   0.25000000
       O46         O   0.20206671   0.10366651   0.18395000   0.25000000
       O47         O   0.22966682   0.20206671   0.18395000   0.25000000
       O48         O   0.20206671   0.10366651   0.31605000   0.25000000
       O49         O   0.22966682   0.20206671   0.31605000   0.25000000
       O50         O   0.20206671   0.22966682   0.06605000   0.25000000
       O51         O   0.10366651   0.20206671   0.06605000   0.25000000
       O52         O   0.20206671   0.22966682   0.43395000   0.25000000
       O53         O   0.10366651   0.20206671   0.43395000   0.25000000
       O54         O   0.22966682   0.13126662   0.06605000   0.25000000
       O55         O   0.13126662   0.10366651   0.43395000   0.25000000
       O56         O   0.22966682   0.13126662   0.43395000   0.25000000
       O57         O   0.13126662   0.22966682   0.18395000   0.25000000
       O58         O   0.10366651   0.13126662   0.18395000   0.25000000
       O59         O   0.13126662   0.22966682   0.31605000   0.25000000
       O60         O   0.10366651   0.13126662   0.31605000   0.25000000
      Si61        Si   0.08446661   0.14360003   0.55570012   0.50000000
      Si62        Si   0.24886673   0.14360003   0.69429988   0.50000000
      Si63        Si   0.18973330   0.24886673   0.69429988   0.50000000
      Si64        Si   0.24886673   0.14360003   0.80570012   0.50000000
      Si65        Si   0.18973330   0.24886673   0.80570012   0.50000000
      Si66        Si   0.24886673   0.18973330   0.55570012   0.50000000
      Si67        Si   0.14360003   0.24886673   0.55570012   0.50000000
      Si68        Si   0.24886673   0.18973330   0.94429988   0.50000000
      Si69        Si   0.14360003   0.24886673   0.94429988   0.50000000
      Si70        Si   0.18973330   0.08446661   0.55570012   0.50000000
      Si71        Si   0.08446661   0.14360003   0.94429988   0.50000000
      Si72        Si   0.18973330   0.08446661   0.94429988   0.50000000
      Si73        Si   0.08446661   0.18973330   0.69429988   0.50000000
      Si74        Si   0.14360003   0.08446661   0.69429988   0.50000000
      Si75        Si   0.08446661   0.18973330   0.80570012   0.50000000
      Si76        Si   0.14360003   0.08446661   0.80570012   0.50000000
      Si77        Si   0.00000000   0.16666667   0.62500000   0.50000000
      Si78        Si   0.16666667   0.00000000   0.62500000   0.50000000
      Si79        Si   0.00000000   0.16666667   0.87500000   0.50000000
      Si80        Si   0.16666667   0.00000000   0.87500000   0.50000000
       O81         O   0.03630005   0.20246676   0.65890006   0.25000000
       O82         O   0.29703328   0.20246676   0.59109994   0.25000000
       O83         O   0.13086657   0.29703328   0.59109994   0.25000000
       O84         O   0.29703328   0.20246676   0.90890006   0.25000000
       O85         O   0.13086657   0.29703328   0.90890006   0.25000000
       O86         O   0.29703328   0.13086657   0.65890006   0.25000000
       O87         O   0.20246676   0.29703328   0.65890006   0.25000000
       O88         O   0.29703328   0.13086657   0.84109994   0.25000000
       O89         O   0.20246676   0.29703328   0.84109994   0.25000000
       O90         O   0.13086657   0.03630005   0.65890006   0.25000000
       O91         O   0.03630005   0.20246676   0.84109994   0.25000000
       O92         O   0.13086657   0.03630005   0.84109994   0.25000000
       O93         O   0.03630005   0.13086657   0.59109994   0.25000000
       O94         O   0.20246676   0.03630005   0.59109994   0.25000000
       O95         O   0.03630005   0.13086657   0.90890006   0.25000000
       O96         O   0.20246676   0.03630005   0.90890006   0.25000000
       O97         O   0.06616671   0.13850012   0.50000000   0.25000000
       O98         O   0.26716663   0.13850012   0.75000000   0.25000000
       O99         O   0.19483322   0.26716663   0.75000000   0.25000000
       O100        O   0.26716663   0.19483322   0.50000000   0.25000000
       O101        O   0.13850012   0.26716663   0.50000000   0.25000000
       O102        O   0.19483322   0.06616671   0.50000000   0.25000000
       O103        O   0.06616671   0.19483322   0.75000000   0.25000000
       O104        O   0.13850012   0.06616671   0.75000000   0.25000000
       O105        O   0.13126662   0.10366651   0.56605000   0.25000000
       O106        O   0.20206671   0.10366651   0.68395000   0.25000000
       O107        O   0.22966682   0.20206671   0.68395000   0.25000000
       O108        O   0.20206671   0.10366651   0.81605000   0.25000000
       O109        O   0.22966682   0.20206671   0.81605000   0.25000000
       O110        O   0.20206671   0.22966682   0.56605000   0.25000000
       O111        O   0.10366651   0.20206671   0.56605000   0.25000000
       O112        O   0.20206671   0.22966682   0.93395000   0.25000000
       O113        O   0.10366651   0.20206671   0.93395000   0.25000000
       O114        O   0.22966682   0.13126662   0.56605000   0.25000000
       O115        O   0.13126662   0.10366651   0.93395000   0.25000000
       O116        O   0.22966682   0.13126662   0.93395000   0.25000000
       O117        O   0.13126662   0.22966682   0.68395000   0.25000000
       O118        O   0.10366651   0.13126662   0.68395000   0.25000000
       O119        O   0.13126662   0.22966682   0.81605000   0.25000000
       O120        O   0.10366651   0.13126662   0.81605000   0.25000000
      Si121       Si   0.08446661   0.47693336   0.05570012   0.50000000
      Si122       Si   0.24886673   0.47693336   0.19429988   0.50000000
      Si123       Si   0.18973330   0.58220006   0.19429988   0.50000000
      Si124       Si   0.24886673   0.47693336   0.30570012   0.50000000
      Si125       Si   0.18973330   0.58220006   0.30570012   0.50000000
      Si126       Si   0.24886673   0.52306664   0.05570012   0.50000000
      Si127       Si   0.14360003   0.58220006   0.05570012   0.50000000
      Si128       Si   0.24886673   0.52306664   0.44429988   0.50000000
      Si129       Si   0.14360003   0.58220006   0.44429988   0.50000000
      Si130       Si   0.18973330   0.41779994   0.05570012   0.50000000
      Si131       Si   0.08446661   0.47693336   0.44429988   0.50000000
      Si132       Si   0.18973330   0.41779994   0.44429988   0.50000000
      Si133       Si   0.08446661   0.52306664   0.19429988   0.50000000
      Si134       Si   0.14360003   0.41779994   0.19429988   0.50000000
      Si135       Si   0.08446661   0.52306664   0.30570012   0.50000000
      Si136       Si   0.14360003   0.41779994   0.30570012   0.50000000
      Si137       Si   0.00000000   0.50000000   0.12500000   0.50000000
      Si138       Si   0.16666667   0.33333333   0.12500000   0.50000000
      Si139       Si   0.00000000   0.50000000   0.37500000   0.50000000
      Si140       Si   0.16666667   0.33333333   0.37500000   0.50000000
       O141        O   0.03630005   0.53580009   0.15890006   0.25000000
       O142        O   0.29703328   0.53580009   0.09109994   0.25000000
       O143        O   0.13086657   0.63036661   0.09109994   0.25000000
       O144        O   0.29703328   0.53580009   0.40890006   0.25000000
       O145        O   0.13086657   0.63036661   0.40890006   0.25000000
       O146        O   0.29703328   0.46419991   0.15890006   0.25000000
       O147        O   0.20246676   0.63036661   0.15890006   0.25000000
       O148        O   0.29703328   0.46419991   0.34109994   0.25000000
       O149        O   0.20246676   0.63036661   0.34109994   0.25000000
       O150        O   0.13086657   0.36963339   0.15890006   0.25000000
       O151        O   0.03630005   0.53580009   0.34109994   0.25000000
       O152        O   0.13086657   0.36963339   0.34109994   0.25000000
       O153        O   0.03630005   0.46419991   0.09109994   0.25000000
       O154        O   0.20246676   0.36963339   0.09109994   0.25000000
       O155        O   0.03630005   0.46419991   0.40890006   0.25000000
       O156        O   0.20246676   0.36963339   0.40890006   0.25000000
       O157        O   0.06616671   0.47183345   0.00000000   0.25000000
       O158        O   0.26716663   0.47183345   0.25000000   0.25000000
       O159        O   0.19483322   0.60049996   0.25000000   0.25000000
       O160        O   0.26716663   0.52816655   0.00000000   0.25000000
       O161        O   0.13850012   0.60049996   0.00000000   0.25000000
       O162        O   0.19483322   0.39950004   0.00000000   0.25000000
       O163        O   0.06616671   0.52816655   0.25000000   0.25000000
       O164        O   0.13850012   0.39950004   0.25000000   0.25000000
       O165        O   0.13126662   0.43699985   0.06605000   0.25000000
       O166        O   0.20206671   0.43699985   0.18395000   0.25000000
       O167        O   0.22966682   0.53540005   0.18395000   0.25000000
       O168        O   0.20206671   0.43699985   0.31605000   0.25000000
       O169        O   0.22966682   0.53540005   0.31605000   0.25000000
       O170        O   0.20206671   0.56300015   0.06605000   0.25000000
       O171        O   0.10366651   0.53540005   0.06605000   0.25000000
       O172        O   0.20206671   0.56300015   0.43395000   0.25000000
       O173        O   0.10366651   0.53540005   0.43395000   0.25000000
       O174        O   0.22966682   0.46459995   0.06605000   0.25000000
       O175        O   0.13126662   0.43699985   0.43395000   0.25000000
       O176        O   0.22966682   0.46459995   0.43395000   0.25000000
       O177        O   0.13126662   0.56300015   0.18395000   0.25000000
       O178        O   0.10366651   0.46459995   0.18395000   0.25000000
       O179        O   0.13126662   0.56300015   0.31605000   0.25000000
       O180        O   0.10366651   0.46459995   0.31605000   0.25000000
      Si181       Si   0.08446661   0.47693336   0.55570012   0.50000000
      Si182       Si   0.24886673   0.47693336   0.69429988   0.50000000
      Si183       Si   0.18973330   0.58220006   0.69429988   0.50000000
      Si184       Si   0.24886673   0.47693336   0.80570012   0.50000000
      Si185       Si   0.18973330   0.58220006   0.80570012   0.50000000
      Si186       Si   0.24886673   0.52306664   0.55570012   0.50000000
      Si187       Si   0.14360003   0.58220006   0.55570012   0.50000000
      Si188       Si   0.24886673   0.52306664   0.94429988   0.50000000
      Si189       Si   0.14360003   0.58220006   0.94429988   0.50000000
      Si190       Si   0.18973330   0.41779994   0.55570012   0.50000000
      Si191       Si   0.08446661   0.47693336   0.94429988   0.50000000
      Si192       Si   0.18973330   0.41779994   0.94429988   0.50000000
      Si193       Si   0.08446661   0.52306664   0.69429988   0.50000000
      Si194       Si   0.14360003   0.41779994   0.69429988   0.50000000
      Si195       Si   0.08446661   0.52306664   0.80570012   0.50000000
      Si196       Si   0.14360003   0.41779994   0.80570012   0.50000000
      Si197       Si   0.00000000   0.50000000   0.62500000   0.50000000
      Si198       Si   0.16666667   0.33333333   0.62500000   0.50000000
      Si199       Si   0.00000000   0.50000000   0.87500000   0.50000000
      Si200       Si   0.16666667   0.33333333   0.87500000   0.50000000
       O201        O   0.03630005   0.53580009   0.65890006   0.25000000
       O202        O   0.29703328   0.53580009   0.59109994   0.25000000
       O203        O   0.13086657   0.63036661   0.59109994   0.25000000
       O204        O   0.29703328   0.53580009   0.90890006   0.25000000
       O205        O   0.13086657   0.63036661   0.90890006   0.25000000
       O206        O   0.29703328   0.46419991   0.65890006   0.25000000
       O207        O   0.20246676   0.63036661   0.65890006   0.25000000
       O208        O   0.29703328   0.46419991   0.84109994   0.25000000
       O209        O   0.20246676   0.63036661   0.84109994   0.25000000
       O210        O   0.13086657   0.36963339   0.65890006   0.25000000
       O211        O   0.03630005   0.53580009   0.84109994   0.25000000
       O212        O   0.13086657   0.36963339   0.84109994   0.25000000
       O213        O   0.03630005   0.46419991   0.59109994   0.25000000
       O214        O   0.20246676   0.36963339   0.59109994   0.25000000
       O215        O   0.03630005   0.46419991   0.90890006   0.25000000
       O216        O   0.20246676   0.36963339   0.90890006   0.25000000
       O217        O   0.06616671   0.47183345   0.50000000   0.25000000
       O218        O   0.26716663   0.47183345   0.75000000   0.25000000
       O219        O   0.19483322   0.60049996   0.75000000   0.25000000
       O220        O   0.26716663   0.52816655   0.50000000   0.25000000
       O221        O   0.13850012   0.60049996   0.50000000   0.25000000
       O222        O   0.19483322   0.39950004   0.50000000   0.25000000
       O223        O   0.06616671   0.52816655   0.75000000   0.25000000
       O224        O   0.13850012   0.39950004   0.75000000   0.25000000
       O225        O   0.13126662   0.43699985   0.56605000   0.25000000
       O226        O   0.20206671   0.43699985   0.68395000   0.25000000
       O227        O   0.22966682   0.53540005   0.68395000   0.25000000
       O228        O   0.20206671   0.43699985   0.81605000   0.25000000
       O229        O   0.22966682   0.53540005   0.81605000   0.25000000
       O230        O   0.20206671   0.56300015   0.56605000   0.25000000
       O231        O   0.10366651   0.53540005   0.56605000   0.25000000
       O232        O   0.20206671   0.56300015   0.93395000   0.25000000
       O233        O   0.10366651   0.53540005   0.93395000   0.25000000
       O234        O   0.22966682   0.46459995   0.56605000   0.25000000
       O235        O   0.13126662   0.43699985   0.93395000   0.25000000
       O236        O   0.22966682   0.46459995   0.93395000   0.25000000
       O237        O   0.13126662   0.56300015   0.68395000   0.25000000
       O238        O   0.10366651   0.46459995   0.68395000   0.25000000
       O239        O   0.13126662   0.56300015   0.81605000   0.25000000
       O240        O   0.10366651   0.46459995   0.81605000   0.25000000
      Si241       Si   0.08446661   0.81026670   0.05570012   0.50000000
      Si242       Si   0.24886673   0.81026670   0.19429988   0.50000000
      Si243       Si   0.18973330   0.91553339   0.19429988   0.50000000
      Si244       Si   0.24886673   0.81026670   0.30570012   0.50000000
      Si245       Si   0.18973330   0.91553339   0.30570012   0.50000000
      Si246       Si   0.24886673   0.85639997   0.05570012   0.50000000
      Si247       Si   0.14360003   0.91553339   0.05570012   0.50000000
      Si248       Si   0.24886673   0.85639997   0.44429988   0.50000000
      Si249       Si   0.14360003   0.91553339   0.44429988   0.50000000
      Si250       Si   0.18973330   0.75113327   0.05570012   0.50000000
      Si251       Si   0.08446661   0.81026670   0.44429988   0.50000000
      Si252       Si   0.18973330   0.75113327   0.44429988   0.50000000
      Si253       Si   0.08446661   0.85639997   0.19429988   0.50000000
      Si254       Si   0.14360003   0.75113327   0.19429988   0.50000000
      Si255       Si   0.08446661   0.85639997   0.30570012   0.50000000
      Si256       Si   0.14360003   0.75113327   0.30570012   0.50000000
      Si257       Si   0.00000000   0.83333333   0.12500000   0.50000000
      Si258       Si   0.16666667   0.66666667   0.12500000   0.50000000
      Si259       Si   0.00000000   0.83333333   0.37500000   0.50000000
      Si260       Si   0.16666667   0.66666667   0.37500000   0.50000000
       O261        O   0.03630005   0.86913343   0.15890006   0.25000000
       O262        O   0.29703328   0.86913343   0.09109994   0.25000000
       O263        O   0.13086657   0.96369995   0.09109994   0.25000000
       O264        O   0.29703328   0.86913343   0.40890006   0.25000000
       O265        O   0.13086657   0.96369995   0.40890006   0.25000000
       O266        O   0.29703328   0.79753324   0.15890006   0.25000000
       O267        O   0.20246676   0.96369995   0.15890006   0.25000000
       O268        O   0.29703328   0.79753324   0.34109994   0.25000000
       O269        O   0.20246676   0.96369995   0.34109994   0.25000000
       O270        O   0.13086657   0.70296672   0.15890006   0.25000000
       O271        O   0.03630005   0.86913343   0.34109994   0.25000000
       O272        O   0.13086657   0.70296672   0.34109994   0.25000000
       O273        O   0.03630005   0.79753324   0.09109994   0.25000000
       O274        O   0.20246676   0.70296672   0.09109994   0.25000000
       O275        O   0.03630005   0.79753324   0.40890006   0.25000000
       O276        O   0.20246676   0.70296672   0.40890006   0.25000000
       O277        O   0.06616671   0.80516678   0.00000000   0.25000000
       O278        O   0.26716663   0.80516678   0.25000000   0.25000000
       O279        O   0.19483322   0.93383329   0.25000000   0.25000000
       O280        O   0.26716663   0.86149988   0.00000000   0.25000000
       O281        O   0.13850012   0.93383329   0.00000000   0.25000000
       O282        O   0.19483322   0.73283337   0.00000000   0.25000000
       O283        O   0.06616671   0.86149988   0.25000000   0.25000000
       O284        O   0.13850012   0.73283337   0.25000000   0.25000000
       O285        O   0.13126662   0.77033318   0.06605000   0.25000000
       O286        O   0.20206671   0.77033318   0.18395000   0.25000000
       O287        O   0.22966682   0.86873338   0.18395000   0.25000000
       O288        O   0.20206671   0.77033318   0.31605000   0.25000000
       O289        O   0.22966682   0.86873338   0.31605000   0.25000000
       O290        O   0.20206671   0.89633349   0.06605000   0.25000000
       O291        O   0.10366651   0.86873338   0.06605000   0.25000000
       O292        O   0.20206671   0.89633349   0.43395000   0.25000000
       O293        O   0.10366651   0.86873338   0.43395000   0.25000000
       O294        O   0.22966682   0.79793329   0.06605000   0.25000000
       O295        O   0.13126662   0.77033318   0.43395000   0.25000000
       O296        O   0.22966682   0.79793329   0.43395000   0.25000000
       O297        O   0.13126662   0.89633349   0.18395000   0.25000000
       O298        O   0.10366651   0.79793329   0.18395000   0.25000000
       O299        O   0.13126662   0.89633349   0.31605000   0.25000000
       O300        O   0.10366651   0.79793329   0.31605000   0.25000000
      Si301       Si   0.08446661   0.81026670   0.55570012   0.50000000
      Si302       Si   0.24886673   0.81026670   0.69429988   0.50000000
      Si303       Si   0.18973330   0.91553339   0.69429988   0.50000000
      Si304       Si   0.24886673   0.81026670   0.80570012   0.50000000
      Si305       Si   0.18973330   0.91553339   0.80570012   0.50000000
      Si306       Si   0.24886673   0.85639997   0.55570012   0.50000000
      Si307       Si   0.14360003   0.91553339   0.55570012   0.50000000
      Si308       Si   0.24886673   0.85639997   0.94429988   0.50000000
      Si309       Si   0.14360003   0.91553339   0.94429988   0.50000000
      Si310       Si   0.18973330   0.75113327   0.55570012   0.50000000
      Si311       Si   0.08446661   0.81026670   0.94429988   0.50000000
      Si312       Si   0.18973330   0.75113327   0.94429988   0.50000000
      Si313       Si   0.08446661   0.85639997   0.69429988   0.50000000
      Si314       Si   0.14360003   0.75113327   0.69429988   0.50000000
      Si315       Si   0.08446661   0.85639997   0.80570012   0.50000000
      Si316       Si   0.14360003   0.75113327   0.80570012   0.50000000
      Si317       Si   0.00000000   0.83333333   0.62500000   0.50000000
      Si318       Si   0.16666667   0.66666667   0.62500000   0.50000000
      Si319       Si   0.00000000   0.83333333   0.87500000   0.50000000
      Si320       Si   0.16666667   0.66666667   0.87500000   0.50000000
       O321        O   0.03630005   0.86913343   0.65890006   0.25000000
       O322        O   0.29703328   0.86913343   0.59109994   0.25000000
       O323        O   0.13086657   0.96369995   0.59109994   0.25000000
       O324        O   0.29703328   0.86913343   0.90890006   0.25000000
       O325        O   0.13086657   0.96369995   0.90890006   0.25000000
       O326        O   0.29703328   0.79753324   0.65890006   0.25000000
       O327        O   0.20246676   0.96369995   0.65890006   0.25000000
       O328        O   0.29703328   0.79753324   0.84109994   0.25000000
       O329        O   0.20246676   0.96369995   0.84109994   0.25000000
       O330        O   0.13086657   0.70296672   0.65890006   0.25000000
       O331        O   0.03630005   0.86913343   0.84109994   0.25000000
       O332        O   0.13086657   0.70296672   0.84109994   0.25000000
       O333        O   0.03630005   0.79753324   0.59109994   0.25000000
       O334        O   0.20246676   0.70296672   0.59109994   0.25000000
       O335        O   0.03630005   0.79753324   0.90890006   0.25000000
       O336        O   0.20246676   0.70296672   0.90890006   0.25000000
       O337        O   0.06616671   0.80516678   0.50000000   0.25000000
       O338        O   0.26716663   0.80516678   0.75000000   0.25000000
       O339        O   0.19483322   0.93383329   0.75000000   0.25000000
       O340        O   0.26716663   0.86149988   0.50000000   0.25000000
       O341        O   0.13850012   0.93383329   0.50000000   0.25000000
       O342        O   0.19483322   0.73283337   0.50000000   0.25000000
       O343        O   0.06616671   0.86149988   0.75000000   0.25000000
       O344        O   0.13850012   0.73283337   0.75000000   0.25000000
       O345        O   0.13126662   0.77033318   0.56605000   0.25000000
       O346        O   0.20206671   0.77033318   0.68395000   0.25000000
       O347        O   0.22966682   0.86873338   0.68395000   0.25000000
       O348        O   0.20206671   0.77033318   0.81605000   0.25000000
       O349        O   0.22966682   0.86873338   0.81605000   0.25000000
       O350        O   0.20206671   0.89633349   0.56605000   0.25000000
       O351        O   0.10366651   0.86873338   0.56605000   0.25000000
       O352        O   0.20206671   0.89633349   0.93395000   0.25000000
       O353        O   0.10366651   0.86873338   0.93395000   0.25000000
       O354        O   0.22966682   0.79793329   0.56605000   0.25000000
       O355        O   0.13126662   0.77033318   0.93395000   0.25000000
       O356        O   0.22966682   0.79793329   0.93395000   0.25000000
       O357        O   0.13126662   0.89633349   0.68395000   0.25000000
       O358        O   0.10366651   0.79793329   0.68395000   0.25000000
       O359        O   0.13126662   0.89633349   0.81605000   0.25000000
       O360        O   0.10366651   0.79793329   0.81605000   0.25000000
      Si361       Si   0.41779994   0.14360003   0.05570012   0.50000000
      Si362       Si   0.58220006   0.14360003   0.19429988   0.50000000
      Si363       Si   0.52306664   0.24886673   0.19429988   0.50000000
      Si364       Si   0.58220006   0.14360003   0.30570012   0.50000000
      Si365       Si   0.52306664   0.24886673   0.30570012   0.50000000
      Si366       Si   0.58220006   0.18973330   0.05570012   0.50000000
      Si367       Si   0.47693336   0.24886673   0.05570012   0.50000000
      Si368       Si   0.58220006   0.18973330   0.44429988   0.50000000
      Si369       Si   0.47693336   0.24886673   0.44429988   0.50000000
      Si370       Si   0.52306664   0.08446661   0.05570012   0.50000000
      Si371       Si   0.41779994   0.14360003   0.44429988   0.50000000
      Si372       Si   0.52306664   0.08446661   0.44429988   0.50000000
      Si373       Si   0.41779994   0.18973330   0.19429988   0.50000000
      Si374       Si   0.47693336   0.08446661   0.19429988   0.50000000
      Si375       Si   0.41779994   0.18973330   0.30570012   0.50000000
      Si376       Si   0.47693336   0.08446661   0.30570012   0.50000000
      Si377       Si   0.33333333   0.16666667   0.12500000   0.50000000
      Si378       Si   0.50000000   0.00000000   0.12500000   0.50000000
      Si379       Si   0.33333333   0.16666667   0.37500000   0.50000000
      Si380       Si   0.50000000   0.00000000   0.37500000   0.50000000
       O381        O   0.36963339   0.20246676   0.15890006   0.25000000
       O382        O   0.63036661   0.20246676   0.09109994   0.25000000
       O383        O   0.46419991   0.29703328   0.09109994   0.25000000
       O384        O   0.63036661   0.20246676   0.40890006   0.25000000
       O385        O   0.46419991   0.29703328   0.40890006   0.25000000
       O386        O   0.63036661   0.13086657   0.15890006   0.25000000
       O387        O   0.53580009   0.29703328   0.15890006   0.25000000
       O388        O   0.63036661   0.13086657   0.34109994   0.25000000
       O389        O   0.53580009   0.29703328   0.34109994   0.25000000
       O390        O   0.46419991   0.03630005   0.15890006   0.25000000
       O391        O   0.36963339   0.20246676   0.34109994   0.25000000
       O392        O   0.46419991   0.03630005   0.34109994   0.25000000
       O393        O   0.36963339   0.13086657   0.09109994   0.25000000
       O394        O   0.53580009   0.03630005   0.09109994   0.25000000
       O395        O   0.36963339   0.13086657   0.40890006   0.25000000
       O396        O   0.53580009   0.03630005   0.40890006   0.25000000
       O397        O   0.39950004   0.13850012   0.00000000   0.25000000
       O398        O   0.60049996   0.13850012   0.25000000   0.25000000
       O399        O   0.52816655   0.26716663   0.25000000   0.25000000
       O400        O   0.60049996   0.19483322   0.00000000   0.25000000
       O401        O   0.47183345   0.26716663   0.00000000   0.25000000
       O402        O   0.52816655   0.06616671   0.00000000   0.25000000
       O403        O   0.39950004   0.19483322   0.25000000   0.25000000
       O404        O   0.47183345   0.06616671   0.25000000   0.25000000
       O405        O   0.46459995   0.10366651   0.06605000   0.25000000
       O406        O   0.53540005   0.10366651   0.18395000   0.25000000
       O407        O   0.56300015   0.20206671   0.18395000   0.25000000
       O408        O   0.53540005   0.10366651   0.31605000   0.25000000
       O409        O   0.56300015   0.20206671   0.31605000   0.25000000
       O410        O   0.53540005   0.22966682   0.06605000   0.25000000
       O411        O   0.43699985   0.20206671   0.06605000   0.25000000
       O412        O   0.53540005   0.22966682   0.43395000   0.25000000
       O413        O   0.43699985   0.20206671   0.43395000   0.25000000
       O414        O   0.56300015   0.13126662   0.06605000   0.25000000
       O415        O   0.46459995   0.10366651   0.43395000   0.25000000
       O416        O   0.56300015   0.13126662   0.43395000   0.25000000
       O417        O   0.46459995   0.22966682   0.18395000   0.25000000
       O418        O   0.43699985   0.13126662   0.18395000   0.25000000
       O419        O   0.46459995   0.22966682   0.31605000   0.25000000
       O420        O   0.43699985   0.13126662   0.31605000   0.25000000
      Si421       Si   0.41779994   0.14360003   0.55570012   0.50000000
      Si422       Si   0.58220006   0.14360003   0.69429988   0.50000000
      Si423       Si   0.52306664   0.24886673   0.69429988   0.50000000
      Si424       Si   0.58220006   0.14360003   0.80570012   0.50000000
      Si425       Si   0.52306664   0.24886673   0.80570012   0.50000000
      Si426       Si   0.58220006   0.18973330   0.55570012   0.50000000
      Si427       Si   0.47693336   0.24886673   0.55570012   0.50000000
      Si428       Si   0.58220006   0.18973330   0.94429988   0.50000000
      Si429       Si   0.47693336   0.24886673   0.94429988   0.50000000
      Si430       Si   0.52306664   0.08446661   0.55570012   0.50000000
      Si431       Si   0.41779994   0.14360003   0.94429988   0.50000000
      Si432       Si   0.52306664   0.08446661   0.94429988   0.50000000
      Si433       Si   0.41779994   0.18973330   0.69429988   0.50000000
      Si434       Si   0.47693336   0.08446661   0.69429988   0.50000000
      Si435       Si   0.41779994   0.18973330   0.80570012   0.50000000
      Si436       Si   0.47693336   0.08446661   0.80570012   0.50000000
      Si437       Si   0.33333333   0.16666667   0.62500000   0.50000000
      Si438       Si   0.50000000   0.00000000   0.62500000   0.50000000
      Si439       Si   0.33333333   0.16666667   0.87500000   0.50000000
      Si440       Si   0.50000000   0.00000000   0.87500000   0.50000000
       O441        O   0.36963339   0.20246676   0.65890006   0.25000000
       O442        O   0.63036661   0.20246676   0.59109994   0.25000000
       O443        O   0.46419991   0.29703328   0.59109994   0.25000000
       O444        O   0.63036661   0.20246676   0.90890006   0.25000000
       O445        O   0.46419991   0.29703328   0.90890006   0.25000000
       O446        O   0.63036661   0.13086657   0.65890006   0.25000000
       O447        O   0.53580009   0.29703328   0.65890006   0.25000000
       O448        O   0.63036661   0.13086657   0.84109994   0.25000000
       O449        O   0.53580009   0.29703328   0.84109994   0.25000000
       O450        O   0.46419991   0.03630005   0.65890006   0.25000000
       O451        O   0.36963339   0.20246676   0.84109994   0.25000000
       O452        O   0.46419991   0.03630005   0.84109994   0.25000000
       O453        O   0.36963339   0.13086657   0.59109994   0.25000000
       O454        O   0.53580009   0.03630005   0.59109994   0.25000000
       O455        O   0.36963339   0.13086657   0.90890006   0.25000000
       O456        O   0.53580009   0.03630005   0.90890006   0.25000000
       O457        O   0.39950004   0.13850012   0.50000000   0.25000000
       O458        O   0.60049996   0.13850012   0.75000000   0.25000000
       O459        O   0.52816655   0.26716663   0.75000000   0.25000000
       O460        O   0.60049996   0.19483322   0.50000000   0.25000000
       O461        O   0.47183345   0.26716663   0.50000000   0.25000000
       O462        O   0.52816655   0.06616671   0.50000000   0.25000000
       O463        O   0.39950004   0.19483322   0.75000000   0.25000000
       O464        O   0.47183345   0.06616671   0.75000000   0.25000000
       O465        O   0.46459995   0.10366651   0.56605000   0.25000000
       O466        O   0.53540005   0.10366651   0.68395000   0.25000000
       O467        O   0.56300015   0.20206671   0.68395000   0.25000000
       O468        O   0.53540005   0.10366651   0.81605000   0.25000000
       O469        O   0.56300015   0.20206671   0.81605000   0.25000000
       O470        O   0.53540005   0.22966682   0.56605000   0.25000000
       O471        O   0.43699985   0.20206671   0.56605000   0.25000000
       O472        O   0.53540005   0.22966682   0.93395000   0.25000000
       O473        O   0.43699985   0.20206671   0.93395000   0.25000000
       O474        O   0.56300015   0.13126662   0.56605000   0.25000000
       O475        O   0.46459995   0.10366651   0.93395000   0.25000000
       O476        O   0.56300015   0.13126662   0.93395000   0.25000000
       O477        O   0.46459995   0.22966682   0.68395000   0.25000000
       O478        O   0.43699985   0.13126662   0.68395000   0.25000000
       O479        O   0.46459995   0.22966682   0.81605000   0.25000000
       O480        O   0.43699985   0.13126662   0.81605000   0.25000000
      Si481       Si   0.41779994   0.47693336   0.05570012   0.50000000
      Si482       Si   0.58220006   0.47693336   0.19429988   0.50000000
      Si483       Si   0.52306664   0.58220006   0.19429988   0.50000000
      Si484       Si   0.58220006   0.47693336   0.30570012   0.50000000
      Si485       Si   0.52306664   0.58220006   0.30570012   0.50000000
      Si486       Si   0.58220006   0.52306664   0.05570012   0.50000000
      Si487       Si   0.47693336   0.58220006   0.05570012   0.50000000
      Si488       Si   0.58220006   0.52306664   0.44429988   0.50000000
      Si489       Si   0.47693336   0.58220006   0.44429988   0.50000000
      Si490       Si   0.52306664   0.41779994   0.05570012   0.50000000
      Si491       Si   0.41779994   0.47693336   0.44429988   0.50000000
      Si492       Si   0.52306664   0.41779994   0.44429988   0.50000000
      Si493       Si   0.41779994   0.52306664   0.19429988   0.50000000
      Si494       Si   0.47693336   0.41779994   0.19429988   0.50000000
      Si495       Si   0.41779994   0.52306664   0.30570012   0.50000000
      Si496       Si   0.47693336   0.41779994   0.30570012   0.50000000
      Si497       Si   0.33333333   0.50000000   0.12500000   0.50000000
      Si498       Si   0.50000000   0.33333333   0.12500000   0.50000000
      Si499       Si   0.33333333   0.50000000   0.37500000   0.50000000
      Si500       Si   0.50000000   0.33333333   0.37500000   0.50000000
       O501        O   0.36963339   0.53580009   0.15890006   0.25000000
       O502        O   0.63036661   0.53580009   0.09109994   0.25000000
       O503        O   0.46419991   0.63036661   0.09109994   0.25000000
       O504        O   0.63036661   0.53580009   0.40890006   0.25000000
       O505        O   0.46419991   0.63036661   0.40890006   0.25000000
       O506        O   0.63036661   0.46419991   0.15890006   0.25000000
       O507        O   0.53580009   0.63036661   0.15890006   0.25000000
       O508        O   0.63036661   0.46419991   0.34109994   0.25000000
       O509        O   0.53580009   0.63036661   0.34109994   0.25000000
       O510        O   0.46419991   0.36963339   0.15890006   0.25000000
       O511        O   0.36963339   0.53580009   0.34109994   0.25000000
       O512        O   0.46419991   0.36963339   0.34109994   0.25000000
       O513        O   0.36963339   0.46419991   0.09109994   0.25000000
       O514        O   0.53580009   0.36963339   0.09109994   0.25000000
       O515        O   0.36963339   0.46419991   0.40890006   0.25000000
       O516        O   0.53580009   0.36963339   0.40890006   0.25000000
       O517        O   0.39950004   0.47183345   0.00000000   0.25000000
       O518        O   0.60049996   0.47183345   0.25000000   0.25000000
       O519        O   0.52816655   0.60049996   0.25000000   0.25000000
       O520        O   0.60049996   0.52816655   0.00000000   0.25000000
       O521        O   0.47183345   0.60049996   0.00000000   0.25000000
       O522        O   0.52816655   0.39950004   0.00000000   0.25000000
       O523        O   0.39950004   0.52816655   0.25000000   0.25000000
       O524        O   0.47183345   0.39950004   0.25000000   0.25000000
       O525        O   0.46459995   0.43699985   0.06605000   0.25000000
       O526        O   0.53540005   0.43699985   0.18395000   0.25000000
       O527        O   0.56300015   0.53540005   0.18395000   0.25000000
       O528        O   0.53540005   0.43699985   0.31605000   0.25000000
       O529        O   0.56300015   0.53540005   0.31605000   0.25000000
       O530        O   0.53540005   0.56300015   0.06605000   0.25000000
       O531        O   0.43699985   0.53540005   0.06605000   0.25000000
       O532        O   0.53540005   0.56300015   0.43395000   0.25000000
       O533        O   0.43699985   0.53540005   0.43395000   0.25000000
       O534        O   0.56300015   0.46459995   0.06605000   0.25000000
       O535        O   0.46459995   0.43699985   0.43395000   0.25000000
       O536        O   0.56300015   0.46459995   0.43395000   0.25000000
       O537        O   0.46459995   0.56300015   0.18395000   0.25000000
       O538        O   0.43699985   0.46459995   0.18395000   0.25000000
       O539        O   0.46459995   0.56300015   0.31605000   0.25000000
       O540        O   0.43699985   0.46459995   0.31605000   0.25000000
      Si541       Si   0.41779994   0.47693336   0.55570012   0.50000000
      Si542       Si   0.58220006   0.47693336   0.69429988   0.50000000
      Si543       Si   0.52306664   0.58220006   0.69429988   0.50000000
      Si544       Si   0.58220006   0.47693336   0.80570012   0.50000000
      Si545       Si   0.52306664   0.58220006   0.80570012   0.50000000
      Si546       Si   0.58220006   0.52306664   0.55570012   0.50000000
      Si547       Si   0.47693336   0.58220006   0.55570012   0.50000000
      Si548       Si   0.58220006   0.52306664   0.94429988   0.50000000
      Si549       Si   0.47693336   0.58220006   0.94429988   0.50000000
      Si550       Si   0.52306664   0.41779994   0.55570012   0.50000000
      Si551       Si   0.41779994   0.47693336   0.94429988   0.50000000
      Si552       Si   0.52306664   0.41779994   0.94429988   0.50000000
      Si553       Si   0.41779994   0.52306664   0.69429988   0.50000000
      Si554       Si   0.47693336   0.41779994   0.69429988   0.50000000
      Si555       Si   0.41779994   0.52306664   0.80570012   0.50000000
      Si556       Si   0.47693336   0.41779994   0.80570012   0.50000000
      Si557       Si   0.33333333   0.50000000   0.62500000   0.50000000
      Si558       Si   0.50000000   0.33333333   0.62500000   0.50000000
      Si559       Si   0.33333333   0.50000000   0.87500000   0.50000000
      Si560       Si   0.50000000   0.33333333   0.87500000   0.50000000
       O561        O   0.36963339   0.53580009   0.65890006   0.25000000
       O562        O   0.63036661   0.53580009   0.59109994   0.25000000
       O563        O   0.46419991   0.63036661   0.59109994   0.25000000
       O564        O   0.63036661   0.53580009   0.90890006   0.25000000
       O565        O   0.46419991   0.63036661   0.90890006   0.25000000
       O566        O   0.63036661   0.46419991   0.65890006   0.25000000
       O567        O   0.53580009   0.63036661   0.65890006   0.25000000
       O568        O   0.63036661   0.46419991   0.84109994   0.25000000
       O569        O   0.53580009   0.63036661   0.84109994   0.25000000
       O570        O   0.46419991   0.36963339   0.65890006   0.25000000
       O571        O   0.36963339   0.53580009   0.84109994   0.25000000
       O572        O   0.46419991   0.36963339   0.84109994   0.25000000
       O573        O   0.36963339   0.46419991   0.59109994   0.25000000
       O574        O   0.53580009   0.36963339   0.59109994   0.25000000
       O575        O   0.36963339   0.46419991   0.90890006   0.25000000
       O576        O   0.53580009   0.36963339   0.90890006   0.25000000
       O577        O   0.39950004   0.47183345   0.50000000   0.25000000
       O578        O   0.60049996   0.47183345   0.75000000   0.25000000
       O579        O   0.52816655   0.60049996   0.75000000   0.25000000
       O580        O   0.60049996   0.52816655   0.50000000   0.25000000
       O581        O   0.47183345   0.60049996   0.50000000   0.25000000
       O582        O   0.52816655   0.39950004   0.50000000   0.25000000
       O583        O   0.39950004   0.52816655   0.75000000   0.25000000
       O584        O   0.47183345   0.39950004   0.75000000   0.25000000
       O585        O   0.46459995   0.43699985   0.56605000   0.25000000
       O586        O   0.53540005   0.43699985   0.68395000   0.25000000
       O587        O   0.56300015   0.53540005   0.68395000   0.25000000
       O588        O   0.53540005   0.43699985   0.81605000   0.25000000
       O589        O   0.56300015   0.53540005   0.81605000   0.25000000
       O590        O   0.53540005   0.56300015   0.56605000   0.25000000
       O591        O   0.43699985   0.53540005   0.56605000   0.25000000
       O592        O   0.53540005   0.56300015   0.93395000   0.25000000
       O593        O   0.43699985   0.53540005   0.93395000   0.25000000
       O594        O   0.56300015   0.46459995   0.56605000   0.25000000
       O595        O   0.46459995   0.43699985   0.93395000   0.25000000
       O596        O   0.56300015   0.46459995   0.93395000   0.25000000
       O597        O   0.46459995   0.56300015   0.68395000   0.25000000
       O598        O   0.43699985   0.46459995   0.68395000   0.25000000
       O599        O   0.46459995   0.56300015   0.81605000   0.25000000
       O600        O   0.43699985   0.46459995   0.81605000   0.25000000
      Si601       Si   0.41779994   0.81026670   0.05570012   0.50000000
      Si602       Si   0.58220006   0.81026670   0.19429988   0.50000000
      Si603       Si   0.52306664   0.91553339   0.19429988   0.50000000
      Si604       Si   0.58220006   0.81026670   0.30570012   0.50000000
      Si605       Si   0.52306664   0.91553339   0.30570012   0.50000000
      Si606       Si   0.58220006   0.85639997   0.05570012   0.50000000
      Si607       Si   0.47693336   0.91553339   0.05570012   0.50000000
      Si608       Si   0.58220006   0.85639997   0.44429988   0.50000000
      Si609       Si   0.47693336   0.91553339   0.44429988   0.50000000
      Si610       Si   0.52306664   0.75113327   0.05570012   0.50000000
      Si611       Si   0.41779994   0.81026670   0.44429988   0.50000000
      Si612       Si   0.52306664   0.75113327   0.44429988   0.50000000
      Si613       Si   0.41779994   0.85639997   0.19429988   0.50000000
      Si614       Si   0.47693336   0.75113327   0.19429988   0.50000000
      Si615       Si   0.41779994   0.85639997   0.30570012   0.50000000
      Si616       Si   0.47693336   0.75113327   0.30570012   0.50000000
      Si617       Si   0.33333333   0.83333333   0.12500000   0.50000000
      Si618       Si   0.50000000   0.66666667   0.12500000   0.50000000
      Si619       Si   0.33333333   0.83333333   0.37500000   0.50000000
      Si620       Si   0.50000000   0.66666667   0.37500000   0.50000000
       O621        O   0.36963339   0.86913343   0.15890006   0.25000000
       O622        O   0.63036661   0.86913343   0.09109994   0.25000000
       O623        O   0.46419991   0.96369995   0.09109994   0.25000000
       O624        O   0.63036661   0.86913343   0.40890006   0.25000000
       O625        O   0.46419991   0.96369995   0.40890006   0.25000000
       O626        O   0.63036661   0.79753324   0.15890006   0.25000000
       O627        O   0.53580009   0.96369995   0.15890006   0.25000000
       O628        O   0.63036661   0.79753324   0.34109994   0.25000000
       O629        O   0.53580009   0.96369995   0.34109994   0.25000000
       O630        O   0.46419991   0.70296672   0.15890006   0.25000000
       O631        O   0.36963339   0.86913343   0.34109994   0.25000000
       O632        O   0.46419991   0.70296672   0.34109994   0.25000000
       O633        O   0.36963339   0.79753324   0.09109994   0.25000000
       O634        O   0.53580009   0.70296672   0.09109994   0.25000000
       O635        O   0.36963339   0.79753324   0.40890006   0.25000000
       O636        O   0.53580009   0.70296672   0.40890006   0.25000000
       O637        O   0.39950004   0.80516678   0.00000000   0.25000000
       O638        O   0.60049996   0.80516678   0.25000000   0.25000000
       O639        O   0.52816655   0.93383329   0.25000000   0.25000000
       O640        O   0.60049996   0.86149988   0.00000000   0.25000000
       O641        O   0.47183345   0.93383329   0.00000000   0.25000000
       O642        O   0.52816655   0.73283337   0.00000000   0.25000000
       O643        O   0.39950004   0.86149988   0.25000000   0.25000000
       O644        O   0.47183345   0.73283337   0.25000000   0.25000000
       O645        O   0.46459995   0.77033318   0.06605000   0.25000000
       O646        O   0.53540005   0.77033318   0.18395000   0.25000000
       O647        O   0.56300015   0.86873338   0.18395000   0.25000000
       O648        O   0.53540005   0.77033318   0.31605000   0.25000000
       O649        O   0.56300015   0.86873338   0.31605000   0.25000000
       O650        O   0.53540005   0.89633349   0.06605000   0.25000000
       O651        O   0.43699985   0.86873338   0.06605000   0.25000000
       O652        O   0.53540005   0.89633349   0.43395000   0.25000000
       O653        O   0.43699985   0.86873338   0.43395000   0.25000000
       O654        O   0.56300015   0.79793329   0.06605000   0.25000000
       O655        O   0.46459995   0.77033318   0.43395000   0.25000000
       O656        O   0.56300015   0.79793329   0.43395000   0.25000000
       O657        O   0.46459995   0.89633349   0.18395000   0.25000000
       O658        O   0.43699985   0.79793329   0.18395000   0.25000000
       O659        O   0.46459995   0.89633349   0.31605000   0.25000000
       O660        O   0.43699985   0.79793329   0.31605000   0.25000000
      Si661       Si   0.41779994   0.81026670   0.55570012   0.50000000
      Si662       Si   0.58220006   0.81026670   0.69429988   0.50000000
      Si663       Si   0.52306664   0.91553339   0.69429988   0.50000000
      Si664       Si   0.58220006   0.81026670   0.80570012   0.50000000
      Si665       Si   0.52306664   0.91553339   0.80570012   0.50000000
      Si666       Si   0.58220006   0.85639997   0.55570012   0.50000000
      Si667       Si   0.47693336   0.91553339   0.55570012   0.50000000
      Si668       Si   0.58220006   0.85639997   0.94429988   0.50000000
      Si669       Si   0.47693336   0.91553339   0.94429988   0.50000000
      Si670       Si   0.52306664   0.75113327   0.55570012   0.50000000
      Si671       Si   0.41779994   0.81026670   0.94429988   0.50000000
      Si672       Si   0.52306664   0.75113327   0.94429988   0.50000000
      Si673       Si   0.41779994   0.85639997   0.69429988   0.50000000
      Si674       Si   0.47693336   0.75113327   0.69429988   0.50000000
      Si675       Si   0.41779994   0.85639997   0.80570012   0.50000000
      Si676       Si   0.47693336   0.75113327   0.80570012   0.50000000
      Si677       Si   0.33333333   0.83333333   0.62500000   0.50000000
      Si678       Si   0.50000000   0.66666667   0.62500000   0.50000000
      Si679       Si   0.33333333   0.83333333   0.87500000   0.50000000
      Si680       Si   0.50000000   0.66666667   0.87500000   0.50000000
       O681        O   0.36963339   0.86913343   0.65890006   0.25000000
       O682        O   0.63036661   0.86913343   0.59109994   0.25000000
       O683        O   0.46419991   0.96369995   0.59109994   0.25000000
       O684        O   0.63036661   0.86913343   0.90890006   0.25000000
       O685        O   0.46419991   0.96369995   0.90890006   0.25000000
       O686        O   0.63036661   0.79753324   0.65890006   0.25000000
       O687        O   0.53580009   0.96369995   0.65890006   0.25000000
       O688        O   0.63036661   0.79753324   0.84109994   0.25000000
       O689        O   0.53580009   0.96369995   0.84109994   0.25000000
       O690        O   0.46419991   0.70296672   0.65890006   0.25000000
       O691        O   0.36963339   0.86913343   0.84109994   0.25000000
       O692        O   0.46419991   0.70296672   0.84109994   0.25000000
       O693        O   0.36963339   0.79753324   0.59109994   0.25000000
       O694        O   0.53580009   0.70296672   0.59109994   0.25000000
       O695        O   0.36963339   0.79753324   0.90890006   0.25000000
       O696        O   0.53580009   0.70296672   0.90890006   0.25000000
       O697        O   0.39950004   0.80516678   0.50000000   0.25000000
       O698        O   0.60049996   0.80516678   0.75000000   0.25000000
       O699        O   0.52816655   0.93383329   0.75000000   0.25000000
       O700        O   0.60049996   0.86149988   0.50000000   0.25000000
       O701        O   0.47183345   0.93383329   0.50000000   0.25000000
       O702        O   0.52816655   0.73283337   0.50000000   0.25000000
       O703        O   0.39950004   0.86149988   0.75000000   0.25000000
       O704        O   0.47183345   0.73283337   0.75000000   0.25000000
       O705        O   0.46459995   0.77033318   0.56605000   0.25000000
       O706        O   0.53540005   0.77033318   0.68395000   0.25000000
       O707        O   0.56300015   0.86873338   0.68395000   0.25000000
       O708        O   0.53540005   0.77033318   0.81605000   0.25000000
       O709        O   0.56300015   0.86873338   0.81605000   0.25000000
       O710        O   0.53540005   0.89633349   0.56605000   0.25000000
       O711        O   0.43699985   0.86873338   0.56605000   0.25000000
       O712        O   0.53540005   0.89633349   0.93395000   0.25000000
       O713        O   0.43699985   0.86873338   0.93395000   0.25000000
       O714        O   0.56300015   0.79793329   0.56605000   0.25000000
       O715        O   0.46459995   0.77033318   0.93395000   0.25000000
       O716        O   0.56300015   0.79793329   0.93395000   0.25000000
       O717        O   0.46459995   0.89633349   0.68395000   0.25000000
       O718        O   0.43699985   0.79793329   0.68395000   0.25000000
       O719        O   0.46459995   0.89633349   0.81605000   0.25000000
       O720        O   0.43699985   0.79793329   0.81605000   0.25000000
      Si721       Si   0.75113327   0.14360003   0.05570012   0.50000000
      Si722       Si   0.91553339   0.14360003   0.19429988   0.50000000
      Si723       Si   0.85639997   0.24886673   0.19429988   0.50000000
      Si724       Si   0.91553339   0.14360003   0.30570012   0.50000000
      Si725       Si   0.85639997   0.24886673   0.30570012   0.50000000
      Si726       Si   0.91553339   0.18973330   0.05570012   0.50000000
      Si727       Si   0.81026670   0.24886673   0.05570012   0.50000000
      Si728       Si   0.91553339   0.18973330   0.44429988   0.50000000
      Si729       Si   0.81026670   0.24886673   0.44429988   0.50000000
      Si730       Si   0.85639997   0.08446661   0.05570012   0.50000000
      Si731       Si   0.75113327   0.14360003   0.44429988   0.50000000
      Si732       Si   0.85639997   0.08446661   0.44429988   0.50000000
      Si733       Si   0.75113327   0.18973330   0.19429988   0.50000000
      Si734       Si   0.81026670   0.08446661   0.19429988   0.50000000
      Si735       Si   0.75113327   0.18973330   0.30570012   0.50000000
      Si736       Si   0.81026670   0.08446661   0.30570012   0.50000000
      Si737       Si   0.66666667   0.16666667   0.12500000   0.50000000
      Si738       Si   0.83333333   0.00000000   0.12500000   0.50000000
      Si739       Si   0.66666667   0.16666667   0.37500000   0.50000000
      Si740       Si   0.83333333   0.00000000   0.37500000   0.50000000
       O741        O   0.70296672   0.20246676   0.15890006   0.25000000
       O742        O   0.96369995   0.20246676   0.09109994   0.25000000
       O743        O   0.79753324   0.29703328   0.09109994   0.25000000
       O744        O   0.96369995   0.20246676   0.40890006   0.25000000
       O745        O   0.79753324   0.29703328   0.40890006   0.25000000
       O746        O   0.96369995   0.13086657   0.15890006   0.25000000
       O747        O   0.86913343   0.29703328   0.15890006   0.25000000
       O748        O   0.96369995   0.13086657   0.34109994   0.25000000
       O749        O   0.86913343   0.29703328   0.34109994   0.25000000
       O750        O   0.79753324   0.03630005   0.15890006   0.25000000
       O751        O   0.70296672   0.20246676   0.34109994   0.25000000
       O752        O   0.79753324   0.03630005   0.34109994   0.25000000
       O753        O   0.70296672   0.13086657   0.09109994   0.25000000
       O754        O   0.86913343   0.03630005   0.09109994   0.25000000
       O755        O   0.70296672   0.13086657   0.40890006   0.25000000
       O756        O   0.86913343   0.03630005   0.40890006   0.25000000
       O757        O   0.73283337   0.13850012   0.00000000   0.25000000
       O758        O   0.93383329   0.13850012   0.25000000   0.25000000
       O759        O   0.86149988   0.26716663   0.25000000   0.25000000
       O760        O   0.93383329   0.19483322   0.00000000   0.25000000
       O761        O   0.80516678   0.26716663   0.00000000   0.25000000
       O762        O   0.86149988   0.06616671   0.00000000   0.25000000
       O763        O   0.73283337   0.19483322   0.25000000   0.25000000
       O764        O   0.80516678   0.06616671   0.25000000   0.25000000
       O765        O   0.79793329   0.10366651   0.06605000   0.25000000
       O766        O   0.86873338   0.10366651   0.18395000   0.25000000
       O767        O   0.89633349   0.20206671   0.18395000   0.25000000
       O768        O   0.86873338   0.10366651   0.31605000   0.25000000
       O769        O   0.89633349   0.20206671   0.31605000   0.25000000
       O770        O   0.86873338   0.22966682   0.06605000   0.25000000
       O771        O   0.77033318   0.20206671   0.06605000   0.25000000
       O772        O   0.86873338   0.22966682   0.43395000   0.25000000
       O773        O   0.77033318   0.20206671   0.43395000   0.25000000
       O774        O   0.89633349   0.13126662   0.06605000   0.25000000
       O775        O   0.79793329   0.10366651   0.43395000   0.25000000
       O776        O   0.89633349   0.13126662   0.43395000   0.25000000
       O777        O   0.79793329   0.22966682   0.18395000   0.25000000
       O778        O   0.77033318   0.13126662   0.18395000   0.25000000
       O779        O   0.79793329   0.22966682   0.31605000   0.25000000
       O780        O   0.77033318   0.13126662   0.31605000   0.25000000
      Si781       Si   0.75113327   0.14360003   0.55570012   0.50000000
      Si782       Si   0.91553339   0.14360003   0.69429988   0.50000000
      Si783       Si   0.85639997   0.24886673   0.69429988   0.50000000
      Si784       Si   0.91553339   0.14360003   0.80570012   0.50000000
      Si785       Si   0.85639997   0.24886673   0.80570012   0.50000000
      Si786       Si   0.91553339   0.18973330   0.55570012   0.50000000
      Si787       Si   0.81026670   0.24886673   0.55570012   0.50000000
      Si788       Si   0.91553339   0.18973330   0.94429988   0.50000000
      Si789       Si   0.81026670   0.24886673   0.94429988   0.50000000
      Si790       Si   0.85639997   0.08446661   0.55570012   0.50000000
      Si791       Si   0.75113327   0.14360003   0.94429988   0.50000000
      Si792       Si   0.85639997   0.08446661   0.94429988   0.50000000
      Si793       Si   0.75113327   0.18973330   0.69429988   0.50000000
      Si794       Si   0.81026670   0.08446661   0.69429988   0.50000000
      Si795       Si   0.75113327   0.18973330   0.80570012   0.50000000
      Si796       Si   0.81026670   0.08446661   0.80570012   0.50000000
      Si797       Si   0.66666667   0.16666667   0.62500000   0.50000000
      Si798       Si   0.83333333   0.00000000   0.62500000   0.50000000
      Si799       Si   0.66666667   0.16666667   0.87500000   0.50000000
      Si800       Si   0.83333333   0.00000000   0.87500000   0.50000000
       O801        O   0.70296672   0.20246676   0.65890006   0.25000000
       O802        O   0.96369995   0.20246676   0.59109994   0.25000000
       O803        O   0.79753324   0.29703328   0.59109994   0.25000000
       O804        O   0.96369995   0.20246676   0.90890006   0.25000000
       O805        O   0.79753324   0.29703328   0.90890006   0.25000000
       O806        O   0.96369995   0.13086657   0.65890006   0.25000000
       O807        O   0.86913343   0.29703328   0.65890006   0.25000000
       O808        O   0.96369995   0.13086657   0.84109994   0.25000000
       O809        O   0.86913343   0.29703328   0.84109994   0.25000000
       O810        O   0.79753324   0.03630005   0.65890006   0.25000000
       O811        O   0.70296672   0.20246676   0.84109994   0.25000000
       O812        O   0.79753324   0.03630005   0.84109994   0.25000000
       O813        O   0.70296672   0.13086657   0.59109994   0.25000000
       O814        O   0.86913343   0.03630005   0.59109994   0.25000000
       O815        O   0.70296672   0.13086657   0.90890006   0.25000000
       O816        O   0.86913343   0.03630005   0.90890006   0.25000000
       O817        O   0.73283337   0.13850012   0.50000000   0.25000000
       O818        O   0.93383329   0.13850012   0.75000000   0.25000000
       O819        O   0.86149988   0.26716663   0.75000000   0.25000000
       O820        O   0.93383329   0.19483322   0.50000000   0.25000000
       O821        O   0.80516678   0.26716663   0.50000000   0.25000000
       O822        O   0.86149988   0.06616671   0.50000000   0.25000000
       O823        O   0.73283337   0.19483322   0.75000000   0.25000000
       O824        O   0.80516678   0.06616671   0.75000000   0.25000000
       O825        O   0.79793329   0.10366651   0.56605000   0.25000000
       O826        O   0.86873338   0.10366651   0.68395000   0.25000000
       O827        O   0.89633349   0.20206671   0.68395000   0.25000000
       O828        O   0.86873338   0.10366651   0.81605000   0.25000000
       O829        O   0.89633349   0.20206671   0.81605000   0.25000000
       O830        O   0.86873338   0.22966682   0.56605000   0.25000000
       O831        O   0.77033318   0.20206671   0.56605000   0.25000000
       O832        O   0.86873338   0.22966682   0.93395000   0.25000000
       O833        O   0.77033318   0.20206671   0.93395000   0.25000000
       O834        O   0.89633349   0.13126662   0.56605000   0.25000000
       O835        O   0.79793329   0.10366651   0.93395000   0.25000000
       O836        O   0.89633349   0.13126662   0.93395000   0.25000000
       O837        O   0.79793329   0.22966682   0.68395000   0.25000000
       O838        O   0.77033318   0.13126662   0.68395000   0.25000000
       O839        O   0.79793329   0.22966682   0.81605000   0.25000000
       O840        O   0.77033318   0.13126662   0.81605000   0.25000000
      Si841       Si   0.75113327   0.47693336   0.05570012   0.50000000
      Si842       Si   0.91553339   0.47693336   0.19429988   0.50000000
      Si843       Si   0.85639997   0.58220006   0.19429988   0.50000000
      Si844       Si   0.91553339   0.47693336   0.30570012   0.50000000
      Si845       Si   0.85639997   0.58220006   0.30570012   0.50000000
      Si846       Si   0.91553339   0.52306664   0.05570012   0.50000000
      Si847       Si   0.81026670   0.58220006   0.05570012   0.50000000
      Si848       Si   0.91553339   0.52306664   0.44429988   0.50000000
      Si849       Si   0.81026670   0.58220006   0.44429988   0.50000000
      Si850       Si   0.85639997   0.41779994   0.05570012   0.50000000
      Si851       Si   0.75113327   0.47693336   0.44429988   0.50000000
      Si852       Si   0.85639997   0.41779994   0.44429988   0.50000000
      Si853       Si   0.75113327   0.52306664   0.19429988   0.50000000
      Si854       Si   0.81026670   0.41779994   0.19429988   0.50000000
      Si855       Si   0.75113327   0.52306664   0.30570012   0.50000000
      Si856       Si   0.81026670   0.41779994   0.30570012   0.50000000
      Si857       Si   0.66666667   0.50000000   0.12500000   0.50000000
      Si858       Si   0.83333333   0.33333333   0.12500000   0.50000000
      Si859       Si   0.66666667   0.50000000   0.37500000   0.50000000
      Si860       Si   0.83333333   0.33333333   0.37500000   0.50000000
       O861        O   0.70296672   0.53580009   0.15890006   0.25000000
       O862        O   0.96369995   0.53580009   0.09109994   0.25000000
       O863        O   0.79753324   0.63036661   0.09109994   0.25000000
       O864        O   0.96369995   0.53580009   0.40890006   0.25000000
       O865        O   0.79753324   0.63036661   0.40890006   0.25000000
       O866        O   0.96369995   0.46419991   0.15890006   0.25000000
       O867        O   0.86913343   0.63036661   0.15890006   0.25000000
       O868        O   0.96369995   0.46419991   0.34109994   0.25000000
       O869        O   0.86913343   0.63036661   0.34109994   0.25000000
       O870        O   0.79753324   0.36963339   0.15890006   0.25000000
       O871        O   0.70296672   0.53580009   0.34109994   0.25000000
       O872        O   0.79753324   0.36963339   0.34109994   0.25000000
       O873        O   0.70296672   0.46419991   0.09109994   0.25000000
       O874        O   0.86913343   0.36963339   0.09109994   0.25000000
       O875        O   0.70296672   0.46419991   0.40890006   0.25000000
       O876        O   0.86913343   0.36963339   0.40890006   0.25000000
       O877        O   0.73283337   0.47183345   0.00000000   0.25000000
       O878        O   0.93383329   0.47183345   0.25000000   0.25000000
       O879        O   0.86149988   0.60049996   0.25000000   0.25000000
       O880        O   0.93383329   0.52816655   0.00000000   0.25000000
       O881        O   0.80516678   0.60049996   0.00000000   0.25000000
       O882        O   0.86149988   0.39950004   0.00000000   0.25000000
       O883        O   0.73283337   0.52816655   0.25000000   0.25000000
       O884        O   0.80516678   0.39950004   0.25000000   0.25000000
       O885        O   0.79793329   0.43699985   0.06605000   0.25000000
       O886        O   0.86873338   0.43699985   0.18395000   0.25000000
       O887        O   0.89633349   0.53540005   0.18395000   0.25000000
       O888        O   0.86873338   0.43699985   0.31605000   0.25000000
       O889        O   0.89633349   0.53540005   0.31605000   0.25000000
       O890        O   0.86873338   0.56300015   0.06605000   0.25000000
       O891        O   0.77033318   0.53540005   0.06605000   0.25000000
       O892        O   0.86873338   0.56300015   0.43395000   0.25000000
       O893        O   0.77033318   0.53540005   0.43395000   0.25000000
       O894        O   0.89633349   0.46459995   0.06605000   0.25000000
       O895        O   0.79793329   0.43699985   0.43395000   0.25000000
       O896        O   0.89633349   0.46459995   0.43395000   0.25000000
       O897        O   0.79793329   0.56300015   0.18395000   0.25000000
       O898        O   0.77033318   0.46459995   0.18395000   0.25000000
       O899        O   0.79793329   0.56300015   0.31605000   0.25000000
       O900        O   0.77033318   0.46459995   0.31605000   0.25000000
      Si901       Si   0.75113327   0.47693336   0.55570012   0.50000000
      Si902       Si   0.91553339   0.47693336   0.69429988   0.50000000
      Si903       Si   0.85639997   0.58220006   0.69429988   0.50000000
      Si904       Si   0.91553339   0.47693336   0.80570012   0.50000000
      Si905       Si   0.85639997   0.58220006   0.80570012   0.50000000
      Si906       Si   0.91553339   0.52306664   0.55570012   0.50000000
      Si907       Si   0.81026670   0.58220006   0.55570012   0.50000000
      Si908       Si   0.91553339   0.52306664   0.94429988   0.50000000
      Si909       Si   0.81026670   0.58220006   0.94429988   0.50000000
      Si910       Si   0.85639997   0.41779994   0.55570012   0.50000000
      Si911       Si   0.75113327   0.47693336   0.94429988   0.50000000
      Si912       Si   0.85639997   0.41779994   0.94429988   0.50000000
      Si913       Si   0.75113327   0.52306664   0.69429988   0.50000000
      Si914       Si   0.81026670   0.41779994   0.69429988   0.50000000
      Si915       Si   0.75113327   0.52306664   0.80570012   0.50000000
      Si916       Si   0.81026670   0.41779994   0.80570012   0.50000000
      Si917       Si   0.66666667   0.50000000   0.62500000   0.50000000
      Si918       Si   0.83333333   0.33333333   0.62500000   0.50000000
      Si919       Si   0.66666667   0.50000000   0.87500000   0.50000000
      Si920       Si   0.83333333   0.33333333   0.87500000   0.50000000
       O921        O   0.70296672   0.53580009   0.65890006   0.25000000
       O922        O   0.96369995   0.53580009   0.59109994   0.25000000
       O923        O   0.79753324   0.63036661   0.59109994   0.25000000
       O924        O   0.96369995   0.53580009   0.90890006   0.25000000
       O925        O   0.79753324   0.63036661   0.90890006   0.25000000
       O926        O   0.96369995   0.46419991   0.65890006   0.25000000
       O927        O   0.86913343   0.63036661   0.65890006   0.25000000
       O928        O   0.96369995   0.46419991   0.84109994   0.25000000
       O929        O   0.86913343   0.63036661   0.84109994   0.25000000
       O930        O   0.79753324   0.36963339   0.65890006   0.25000000
       O931        O   0.70296672   0.53580009   0.84109994   0.25000000
       O932        O   0.79753324   0.36963339   0.84109994   0.25000000
       O933        O   0.70296672   0.46419991   0.59109994   0.25000000
       O934        O   0.86913343   0.36963339   0.59109994   0.25000000
       O935        O   0.70296672   0.46419991   0.90890006   0.25000000
       O936        O   0.86913343   0.36963339   0.90890006   0.25000000
       O937        O   0.73283337   0.47183345   0.50000000   0.25000000
       O938        O   0.93383329   0.47183345   0.75000000   0.25000000
       O939        O   0.86149988   0.60049996   0.75000000   0.25000000
       O940        O   0.93383329   0.52816655   0.50000000   0.25000000
       O941        O   0.80516678   0.60049996   0.50000000   0.25000000
       O942        O   0.86149988   0.39950004   0.50000000   0.25000000
       O943        O   0.73283337   0.52816655   0.75000000   0.25000000
       O944        O   0.80516678   0.39950004   0.75000000   0.25000000
       O945        O   0.79793329   0.43699985   0.56605000   0.25000000
       O946        O   0.86873338   0.43699985   0.68395000   0.25000000
       O947        O   0.89633349   0.53540005   0.68395000   0.25000000
       O948        O   0.86873338   0.43699985   0.81605000   0.25000000
       O949        O   0.89633349   0.53540005   0.81605000   0.25000000
       O950        O   0.86873338   0.56300015   0.56605000   0.25000000
       O951        O   0.77033318   0.53540005   0.56605000   0.25000000
       O952        O   0.86873338   0.56300015   0.93395000   0.25000000
       O953        O   0.77033318   0.53540005   0.93395000   0.25000000
       O954        O   0.89633349   0.46459995   0.56605000   0.25000000
       O955        O   0.79793329   0.43699985   0.93395000   0.25000000
       O956        O   0.89633349   0.46459995   0.93395000   0.25000000
       O957        O   0.79793329   0.56300015   0.68395000   0.25000000
       O958        O   0.77033318   0.46459995   0.68395000   0.25000000
       O959        O   0.79793329   0.56300015   0.81605000   0.25000000
       O960        O   0.77033318   0.46459995   0.81605000   0.25000000
      Si961       Si   0.75113327   0.81026670   0.05570012   0.50000000
      Si962       Si   0.91553339   0.81026670   0.19429988   0.50000000
      Si963       Si   0.85639997   0.91553339   0.19429988   0.50000000
      Si964       Si   0.91553339   0.81026670   0.30570012   0.50000000
      Si965       Si   0.85639997   0.91553339   0.30570012   0.50000000
      Si966       Si   0.91553339   0.85639997   0.05570012   0.50000000
      Si967       Si   0.81026670   0.91553339   0.05570012   0.50000000
      Si968       Si   0.91553339   0.85639997   0.44429988   0.50000000
      Si969       Si   0.81026670   0.91553339   0.44429988   0.50000000
      Si970       Si   0.85639997   0.75113327   0.05570012   0.50000000
      Si971       Si   0.75113327   0.81026670   0.44429988   0.50000000
      Si972       Si   0.85639997   0.75113327   0.44429988   0.50000000
      Si973       Si   0.75113327   0.85639997   0.19429988   0.50000000
      Si974       Si   0.81026670   0.75113327   0.19429988   0.50000000
      Si975       Si   0.75113327   0.85639997   0.30570012   0.50000000
      Si976       Si   0.81026670   0.75113327   0.30570012   0.50000000
      Si977       Si   0.66666667   0.83333333   0.12500000   0.50000000
      Si978       Si   0.83333333   0.66666667   0.12500000   0.50000000
      Si979       Si   0.66666667   0.83333333   0.37500000   0.50000000
      Si980       Si   0.83333333   0.66666667   0.37500000   0.50000000
       O981        O   0.70296672   0.86913343   0.15890006   0.25000000
       O982        O   0.96369995   0.86913343   0.09109994   0.25000000
       O983        O   0.79753324   0.96369995   0.09109994   0.25000000
       O984        O   0.96369995   0.86913343   0.40890006   0.25000000
       O985        O   0.79753324   0.96369995   0.40890006   0.25000000
       O986        O   0.96369995   0.79753324   0.15890006   0.25000000
       O987        O   0.86913343   0.96369995   0.15890006   0.25000000
       O988        O   0.96369995   0.79753324   0.34109994   0.25000000
       O989        O   0.86913343   0.96369995   0.34109994   0.25000000
       O990        O   0.79753324   0.70296672   0.15890006   0.25000000
       O991        O   0.70296672   0.86913343   0.34109994   0.25000000
       O992        O   0.79753324   0.70296672   0.34109994   0.25000000
       O993        O   0.70296672   0.79753324   0.09109994   0.25000000
       O994        O   0.86913343   0.70296672   0.09109994   0.25000000
       O995        O   0.70296672   0.79753324   0.40890006   0.25000000
       O996        O   0.86913343   0.70296672   0.40890006   0.25000000
       O997        O   0.73283337   0.80516678   0.00000000   0.25000000
       O998        O   0.93383329   0.80516678   0.25000000   0.25000000
       O999        O   0.86149988   0.93383329   0.25000000   0.25000000
       O1000       O   0.93383329   0.86149988   0.00000000   0.25000000
       O1001       O   0.80516678   0.93383329   0.00000000   0.25000000
       O1002       O   0.86149988   0.73283337   0.00000000   0.25000000
       O1003       O   0.73283337   0.86149988   0.25000000   0.25000000
       O1004       O   0.80516678   0.73283337   0.25000000   0.25000000
       O1005       O   0.79793329   0.77033318   0.06605000   0.25000000
       O1006       O   0.86873338   0.77033318   0.18395000   0.25000000
       O1007       O   0.89633349   0.86873338   0.18395000   0.25000000
       O1008       O   0.86873338   0.77033318   0.31605000   0.25000000
       O1009       O   0.89633349   0.86873338   0.31605000   0.25000000
       O1010       O   0.86873338   0.89633349   0.06605000   0.25000000
       O1011       O   0.77033318   0.86873338   0.06605000   0.25000000
       O1012       O   0.86873338   0.89633349   0.43395000   0.25000000
       O1013       O   0.77033318   0.86873338   0.43395000   0.25000000
       O1014       O   0.89633349   0.79793329   0.06605000   0.25000000
       O1015       O   0.79793329   0.77033318   0.43395000   0.25000000
       O1016       O   0.89633349   0.79793329   0.43395000   0.25000000
       O1017       O   0.79793329   0.89633349   0.18395000   0.25000000
       O1018       O   0.77033318   0.79793329   0.18395000   0.25000000
       O1019       O   0.79793329   0.89633349   0.31605000   0.25000000
       O1020       O   0.77033318   0.79793329   0.31605000   0.25000000
      Si1021      Si   0.75113327   0.81026670   0.55570012   0.50000000
      Si1022      Si   0.91553339   0.81026670   0.69429988   0.50000000
      Si1023      Si   0.85639997   0.91553339   0.69429988   0.50000000
      Si1024      Si   0.91553339   0.81026670   0.80570012   0.50000000
      Si1025      Si   0.85639997   0.91553339   0.80570012   0.50000000
      Si1026      Si   0.91553339   0.85639997   0.55570012   0.50000000
      Si1027      Si   0.81026670   0.91553339   0.55570012   0.50000000
      Si1028      Si   0.91553339   0.85639997   0.94429988   0.50000000
      Si1029      Si   0.81026670   0.91553339   0.94429988   0.50000000
      Si1030      Si   0.85639997   0.75113327   0.55570012   0.50000000
      Si1031      Si   0.75113327   0.81026670   0.94429988   0.50000000
      Si1032      Si   0.85639997   0.75113327   0.94429988   0.50000000
      Si1033      Si   0.75113327   0.85639997   0.69429988   0.50000000
      Si1034      Si   0.81026670   0.75113327   0.69429988   0.50000000
      Si1035      Si   0.75113327   0.85639997   0.80570012   0.50000000
      Si1036      Si   0.81026670   0.75113327   0.80570012   0.50000000
      Si1037      Si   0.66666667   0.83333333   0.62500000   0.50000000
      Si1038      Si   0.83333333   0.66666667   0.62500000   0.50000000
      Si1039      Si   0.66666667   0.83333333   0.87500000   0.50000000
      Si1040      Si   0.83333333   0.66666667   0.87500000   0.50000000
       O1041       O   0.70296672   0.86913343   0.65890006   0.25000000
       O1042       O   0.96369995   0.86913343   0.59109994   0.25000000
       O1043       O   0.79753324   0.96369995   0.59109994   0.25000000
       O1044       O   0.96369995   0.86913343   0.90890006   0.25000000
       O1045       O   0.79753324   0.96369995   0.90890006   0.25000000
       O1046       O   0.96369995   0.79753324   0.65890006   0.25000000
       O1047       O   0.86913343   0.96369995   0.65890006   0.25000000
       O1048       O   0.96369995   0.79753324   0.84109994   0.25000000
       O1049       O   0.86913343   0.96369995   0.84109994   0.25000000
       O1050       O   0.79753324   0.70296672   0.65890006   0.25000000
       O1051       O   0.70296672   0.86913343   0.84109994   0.25000000
       O1052       O   0.79753324   0.70296672   0.84109994   0.25000000
       O1053       O   0.70296672   0.79753324   0.59109994   0.25000000
       O1054       O   0.86913343   0.70296672   0.59109994   0.25000000
       O1055       O   0.70296672   0.79753324   0.90890006   0.25000000
       O1056       O   0.86913343   0.70296672   0.90890006   0.25000000
       O1057       O   0.73283337   0.80516678   0.50000000   0.25000000
       O1058       O   0.93383329   0.80516678   0.75000000   0.25000000
       O1059       O   0.86149988   0.93383329   0.75000000   0.25000000
       O1060       O   0.93383329   0.86149988   0.50000000   0.25000000
       O1061       O   0.80516678   0.93383329   0.50000000   0.25000000
       O1062       O   0.86149988   0.73283337   0.50000000   0.25000000
       O1063       O   0.73283337   0.86149988   0.75000000   0.25000000
       O1064       O   0.80516678   0.73283337   0.75000000   0.25000000
       O1065       O   0.79793329   0.77033318   0.56605000   0.25000000
       O1066       O   0.86873338   0.77033318   0.68395000   0.25000000
       O1067       O   0.89633349   0.86873338   0.68395000   0.25000000
       O1068       O   0.86873338   0.77033318   0.81605000   0.25000000
       O1069       O   0.89633349   0.86873338   0.81605000   0.25000000
       O1070       O   0.86873338   0.89633349   0.56605000   0.25000000
       O1071       O   0.77033318   0.86873338   0.56605000   0.25000000
       O1072       O   0.86873338   0.89633349   0.93395000   0.25000000
       O1073       O   0.77033318   0.86873338   0.93395000   0.25000000
       O1074       O   0.89633349   0.79793329   0.56605000   0.25000000
       O1075       O   0.79793329   0.77033318   0.93395000   0.25000000
       O1076       O   0.89633349   0.79793329   0.93395000   0.25000000
       O1077       O   0.79793329   0.89633349   0.68395000   0.25000000
       O1078       O   0.77033318   0.79793329   0.68395000   0.25000000
       O1079       O   0.79793329   0.89633349   0.81605000   0.25000000
       O1080       O   0.77033318   0.79793329   0.81605000   0.25000000
